<?xml version="1.0" encoding="UTF-8"?>

<!-- generated on 04/27/20 10:55:55 by Eclipse SUMO netedit Version 1.3.1
<configuration xmlns:xsi="http://www.w3.org/2001/XMLSchema-instance" xsi:noNamespaceSchemaLocation="http://sumo.dlr.de/xsd/netconvertConfiguration.xsd">

    <input>
        <sumo-net-file value="C:\veins\src\veins-4.7.1\examples\veins\safe.net.xml"/>
    </input>

    <output>
        <output-file value="C:\veins\src\veins-4.7.1\examples\veins\safe.net.xml"/>
    </output>

    <processing>
        <geometry.max-grade.fix value="false"/>
        <offset.disable-normalization value="true"/>
        <opposites.guess.fix-lengths value="true"/>
        <lefthand value="false"/>
    </processing>

    <junctions>
        <no-turnarounds value="true"/>
        <junctions.corner-detail value="5"/>
        <junctions.limit-turn-speed value="5.5"/>
        <rectangular-lane-cut value="false"/>
    </junctions>

    <pedestrian>
        <walkingareas value="false"/>
    </pedestrian>

</configuration>
-->

<net version="1.3" junctionCornerDetail="5" limitTurnSpeed="5.50" xmlns:xsi="http://www.w3.org/2001/XMLSchema-instance" xsi:noNamespaceSchemaLocation="http://sumo.dlr.de/xsd/net_file.xsd">

    <location netOffset="0.00,0.00" convBoundary="-200.00,-200.00,200.00,200.00" origBoundary="-10000000000.00,-10000000000.00,10000000000.00,10000000000.00" projParameter="!"/>

    <edge id=":gneJ0_0" function="internal">
        <lane id=":gneJ0_0_0" index="0" speed="6.51" length="9.03" shape="-1.60,7.20 -1.95,4.75 -3.00,3.00 -4.75,1.95 -7.20,1.60"/>
    </edge>
    <edge id=":gneJ0_1" function="internal">
        <lane id=":gneJ0_1_0" index="0" speed="13.89" length="14.40" shape="-1.60,7.20 -1.60,-7.20"/>
    </edge>
    <edge id=":gneJ0_2" function="internal">
        <lane id=":gneJ0_2_0" index="0" speed="7.80" length="13.44" shape="-1.60,7.20 -0.81,4.07 1.24,1.24 4.07,-0.81 7.20,-1.60"/>
    </edge>
    <edge id=":gneJ0_3" function="internal">
        <lane id=":gneJ0_3_0" index="0" speed="6.51" length="9.03" shape="7.20,1.60 4.75,1.95 3.00,3.00 1.95,4.75 1.60,7.20"/>
    </edge>
    <edge id=":gneJ0_4" function="internal">
        <lane id=":gneJ0_4_0" index="0" speed="13.89" length="14.40" shape="7.20,1.60 -7.20,1.60"/>
    </edge>
    <edge id=":gneJ0_5" function="internal">
        <lane id=":gneJ0_5_0" index="0" speed="7.80" length="13.44" shape="7.20,1.60 4.07,0.81 1.24,-1.24 -0.81,-4.07 -1.60,-7.20"/>
    </edge>
    <edge id=":gneJ0_6" function="internal">
        <lane id=":gneJ0_6_0" index="0" speed="6.51" length="9.03" shape="1.60,-7.20 1.95,-4.75 3.00,-3.00 4.75,-1.95 7.20,-1.60"/>
    </edge>
    <edge id=":gneJ0_7" function="internal">
        <lane id=":gneJ0_7_0" index="0" speed="13.89" length="14.40" shape="1.60,-7.20 1.60,7.20"/>
    </edge>
    <edge id=":gneJ0_8" function="internal">
        <lane id=":gneJ0_8_0" index="0" speed="7.80" length="13.44" shape="1.60,-7.20 0.81,-4.07 -1.24,-1.24 -4.07,0.81 -7.20,1.60"/>
    </edge>
    <edge id=":gneJ0_9" function="internal">
        <lane id=":gneJ0_9_0" index="0" speed="6.51" length="9.03" shape="-7.20,-1.60 -4.75,-1.95 -3.00,-3.00 -1.95,-4.75 -1.60,-7.20"/>
    </edge>
    <edge id=":gneJ0_10" function="internal">
        <lane id=":gneJ0_10_0" index="0" speed="13.89" length="14.40" shape="-7.20,-1.60 7.20,-1.60"/>
    </edge>
    <edge id=":gneJ0_11" function="internal">
        <lane id=":gneJ0_11_0" index="0" speed="7.80" length="13.44" shape="-7.20,-1.60 -4.07,-0.81 -1.24,1.24 0.81,4.07 1.60,7.20"/>
    </edge>

    <edge id="gneE0" from="gneJ0" to="gneJ1" priority="-1">
        <lane id="gneE0_0" index="0" speed="13.89" length="192.80" shape="1.60,7.20 1.60,200.00"/>
    </edge>
    <edge id="gneE1" from="gneJ1" to="gneJ0" priority="-1">
        <lane id="gneE1_0" index="0" speed="13.89" length="192.80" shape="-1.60,200.00 -1.60,7.20"/>
    </edge>
    <edge id="gneE2" from="gneJ0" to="gneJ2" priority="-1">
        <lane id="gneE2_0" index="0" speed="13.89" length="192.80" shape="7.20,-1.60 200.00,-1.60"/>
    </edge>
    <edge id="gneE3" from="gneJ2" to="gneJ0" priority="-1">
        <lane id="gneE3_0" index="0" speed="13.89" length="192.80" shape="200.00,1.60 7.20,1.60"/>
    </edge>
    <edge id="gneE4" from="gneJ0" to="gneJ3" priority="-1">
        <lane id="gneE4_0" index="0" speed="13.89" length="192.80" shape="-1.60,-7.20 -1.60,-200.00"/>
    </edge>
    <edge id="gneE5" from="gneJ3" to="gneJ0" priority="-1">
        <lane id="gneE5_0" index="0" speed="13.89" length="192.80" shape="1.60,-200.00 1.60,-7.20"/>
    </edge>
    <edge id="gneE6" from="gneJ0" to="gneJ4" priority="-1">
        <lane id="gneE6_0" index="0" speed="13.89" length="192.80" shape="-7.20,1.60 -200.00,1.60"/>
    </edge>
    <edge id="gneE8" from="gneJ4" to="gneJ0" priority="-1">
        <lane id="gneE8_0" index="0" speed="13.89" length="192.80" shape="-200.00,-1.60 -7.20,-1.60"/>
    </edge>

    <tlLogic id="gneJ0" type="static" programID="0" offset="0">
        <phase duration="42" state="GGGGGGGGGGGG"/>
        <phase duration="3"  state="yyyyyyyyyyyy"/>
        <phase duration="42" state="GGGGGGGGGGGG"/>
        <phase duration="3"  state="yyyyyyyyyyyy"/>
    </tlLogic>

    <junction id="gneJ0" type="traffic_light_unregulated" x="0.00" y="0.00" incLanes="gneE1_0 gneE3_0 gneE5_0 gneE8_0" intLanes=":gneJ0_0_0 :gneJ0_1_0 :gneJ0_2_0 :gneJ0_3_0 :gneJ0_4_0 :gneJ0_5_0 :gneJ0_6_0 :gneJ0_7_0 :gneJ0_8_0 :gneJ0_9_0 :gneJ0_10_0 :gneJ0_11_0" shape="-3.20,7.20 3.20,7.20 3.64,4.98 4.20,4.20 4.98,3.64 5.98,3.31 7.20,3.20 7.20,-3.20 4.98,-3.64 4.20,-4.20 3.64,-4.98 3.31,-5.98 3.20,-7.20 -3.20,-7.20 -3.64,-4.98 -4.20,-4.20 -4.98,-3.64 -5.98,-3.31 -7.20,-3.20 -7.20,3.20 -4.98,3.64 -4.20,4.20 -3.64,4.98 -3.31,5.98"/>
    <junction id="gneJ1" type="dead_end" x="0.00" y="200.00" incLanes="gneE0_0" intLanes="" shape="0.00,200.00 3.20,200.00 0.00,200.00"/>
    <junction id="gneJ2" type="dead_end" x="200.00" y="0.00" incLanes="gneE2_0" intLanes="" shape="200.00,0.00 200.00,-3.20 200.00,0.00"/>
    <junction id="gneJ3" type="dead_end" x="0.00" y="-200.00" incLanes="gneE4_0" intLanes="" shape="0.00,-200.00 -3.20,-200.00 0.00,-200.00"/>
    <junction id="gneJ4" type="dead_end" x="-200.00" y="0.00" incLanes="gneE6_0" intLanes="" shape="-200.00,0.00 -200.00,3.20 -200.00,0.00"/>

    <connection from="gneE1" to="gneE6" fromLane="0" toLane="0" via=":gneJ0_0_0" tl="gneJ0" linkIndex="0" dir="r" state="O"/>
    <connection from="gneE1" to="gneE4" fromLane="0" toLane="0" via=":gneJ0_1_0" tl="gneJ0" linkIndex="1" dir="s" state="O"/>
    <connection from="gneE1" to="gneE2" fromLane="0" toLane="0" via=":gneJ0_2_0" tl="gneJ0" linkIndex="2" dir="l" state="O"/>
    <connection from="gneE3" to="gneE0" fromLane="0" toLane="0" via=":gneJ0_3_0" tl="gneJ0" linkIndex="3" dir="r" state="O"/>
    <connection from="gneE3" to="gneE6" fromLane="0" toLane="0" via=":gneJ0_4_0" tl="gneJ0" linkIndex="4" dir="s" state="O"/>
    <connection from="gneE3" to="gneE4" fromLane="0" toLane="0" via=":gneJ0_5_0" tl="gneJ0" linkIndex="5" dir="l" state="O"/>
    <connection from="gneE5" to="gneE2" fromLane="0" toLane="0" via=":gneJ0_6_0" tl="gneJ0" linkIndex="6" dir="r" state="O"/>
    <connection from="gneE5" to="gneE0" fromLane="0" toLane="0" via=":gneJ0_7_0" tl="gneJ0" linkIndex="7" dir="s" state="O"/>
    <connection from="gneE5" to="gneE6" fromLane="0" toLane="0" via=":gneJ0_8_0" tl="gneJ0" linkIndex="8" dir="l" state="O"/>
    <connection from="gneE8" to="gneE4" fromLane="0" toLane="0" via=":gneJ0_9_0" tl="gneJ0" linkIndex="9" dir="r" state="O"/>
    <connection from="gneE8" to="gneE2" fromLane="0" toLane="0" via=":gneJ0_10_0" tl="gneJ0" linkIndex="10" dir="s" state="O"/>
    <connection from="gneE8" to="gneE0" fromLane="0" toLane="0" via=":gneJ0_11_0" tl="gneJ0" linkIndex="11" dir="l" state="O"/>

    <connection from=":gneJ0_0" to="gneE6" fromLane="0" toLane="0" dir="r" state="M"/>
    <connection from=":gneJ0_1" to="gneE4" fromLane="0" toLane="0" dir="s" state="M"/>
    <connection from=":gneJ0_2" to="gneE2" fromLane="0" toLane="0" dir="l" state="M"/>
    <connection from=":gneJ0_3" to="gneE0" fromLane="0" toLane="0" dir="r" state="M"/>
    <connection from=":gneJ0_4" to="gneE6" fromLane="0" toLane="0" dir="s" state="M"/>
    <connection from=":gneJ0_5" to="gneE4" fromLane="0" toLane="0" dir="l" state="M"/>
    <connection from=":gneJ0_6" to="gneE2" fromLane="0" toLane="0" dir="r" state="M"/>
    <connection from=":gneJ0_7" to="gneE0" fromLane="0" toLane="0" dir="s" state="M"/>
    <connection from=":gneJ0_8" to="gneE6" fromLane="0" toLane="0" dir="l" state="M"/>
    <connection from=":gneJ0_9" to="gneE4" fromLane="0" toLane="0" dir="r" state="M"/>
    <connection from=":gneJ0_10" to="gneE2" fromLane="0" toLane="0" dir="s" state="M"/>
    <connection from=":gneJ0_11" to="gneE0" fromLane="0" toLane="0" dir="l" state="M"/>

</net>
