<?xml version="1.0" encoding="UTF-8"?>

<!-- generated on 04/27/20 09:13:14 by Eclipse SUMO duarouter Version 1.3.1
<configuration xmlns:xsi="http://www.w3.org/2001/XMLSchema-instance" xsi:noNamespaceSchemaLocation="http://sumo.dlr.de/xsd/duarouterConfiguration.xsd">

    <input>
        <net-file value="safe.net.xml"/>
        <route-files value="trips.trips.xml"/>
    </input>

    <output>
        <output-file value="safa.rou.xml"/>
        <alternatives-output value="safa.rou.alt.xml"/>
    </output>

</configuration>
-->

<routes xmlns:xsi="http://www.w3.org/2001/XMLSchema-instance" xsi:noNamespaceSchemaLocation="http://sumo.dlr.de/xsd/routes_file.xsd">
    <vehicle id="1" depart="0.00">
        <route edges="gneE5 gneE0"/>
    </vehicle>
    <vehicle id="2" depart="0.00">
        <route edges="gneE5 gneE0"/>
    </vehicle>
    <vehicle id="3" depart="0.00">
        <route edges="gneE3 gneE6"/>
    </vehicle>
    <vehicle id="4" depart="0.00">
        <route edges="gneE5 gneE0"/>
    </vehicle>
    <vehicle id="5" depart="0.00">
        <route edges="gneE3 gneE6"/>
    </vehicle>
    <vehicle id="6" depart="0.00">
        <route edges="gneE3 gneE6"/>
    </vehicle>
    <vehicle id="7" depart="0.00">
        <route edges="gneE3 gneE6"/>
    </vehicle>
    <vehicle id="8" depart="0.00">
        <route edges="gneE3 gneE6"/>
    </vehicle>
    <vehicle id="9" depart="0.00">
        <route edges="gneE5 gneE0"/>
    </vehicle>
    <vehicle id="10" depart="0.00">
        <route edges="gneE5 gneE0"/>
    </vehicle>
    <vehicle id="11" depart="0.00">
        <route edges="gneE5 gneE0"/>
    </vehicle>

</routes>
