<?xml version="1.0" encoding="UTF-8"?>

<!-- generated on 05/01/20 17:19:29 by Eclipse SUMO netedit Version 1.3.1
<configuration xmlns:xsi="http://www.w3.org/2001/XMLSchema-instance" xsi:noNamespaceSchemaLocation="http://sumo.dlr.de/xsd/netconvertConfiguration.xsd">

    <input>
        <sumo-net-file value="C:\veins\src\veins-5.0\examples\veins\safe.net.xml"/>
    </input>

    <output>
        <output-file value="C:\veins\src\veins-5.0\examples\veins\safe.net.xml"/>
    </output>

    <processing>
        <geometry.max-grade.fix value="false"/>
        <offset.disable-normalization value="true"/>
        <opposites.guess.fix-lengths value="true"/>
        <lefthand value="false"/>
    </processing>

    <junctions>
        <no-turnarounds value="true"/>
        <junctions.corner-detail value="5"/>
        <junctions.limit-turn-speed value="5.5"/>
        <rectangular-lane-cut value="false"/>
    </junctions>

    <pedestrian>
        <walkingareas value="false"/>
    </pedestrian>

</configuration>
-->

<net version="1.3" junctionCornerDetail="5" limitTurnSpeed="5.50" xmlns:xsi="http://www.w3.org/2001/XMLSchema-instance" xsi:noNamespaceSchemaLocation="http://sumo.dlr.de/xsd/net_file.xsd">

    <location netOffset="0.00,0.00" convBoundary="-200.00,-200.00,200.00,200.00" origBoundary="-10000000000.00,-10000000000.00,10000000000.00,10000000000.00" projParameter="!"/>

    <edge id=":gneJ0_0" function="internal">
        <lane id=":gneJ0_0_0" index="0" speed="6.51" length="9.03" shape="-4.80,10.40 -5.15,7.95 -6.20,6.20 -7.95,5.15 -10.40,4.80"/>
    </edge>
    <edge id=":gneJ0_1" function="internal">
        <lane id=":gneJ0_1_0" index="0" speed="13.89" length="20.80" shape="-4.80,10.40 -4.80,-10.40"/>
        <lane id=":gneJ0_1_1" index="1" speed="13.89" length="20.80" shape="-1.60,10.40 -1.60,-10.40"/>
    </edge>
    <edge id=":gneJ0_3" function="internal">
        <lane id=":gneJ0_3_0" index="0" speed="9.02" length="18.33" shape="-1.60,10.40 -0.52,6.14 2.28,2.28 6.14,-0.52 10.40,-1.60"/>
    </edge>
    <edge id=":gneJ0_4" function="internal">
        <lane id=":gneJ0_4_0" index="0" speed="6.51" length="9.03" shape="10.40,4.80 7.95,5.15 6.20,6.20 5.15,7.95 4.80,10.40"/>
    </edge>
    <edge id=":gneJ0_5" function="internal">
        <lane id=":gneJ0_5_0" index="0" speed="13.89" length="20.80" shape="10.40,4.80 -10.40,4.80"/>
        <lane id=":gneJ0_5_1" index="1" speed="13.89" length="20.80" shape="10.40,1.60 -10.40,1.60"/>
    </edge>
    <edge id=":gneJ0_7" function="internal">
        <lane id=":gneJ0_7_0" index="0" speed="9.02" length="18.33" shape="10.40,1.60 6.14,0.52 2.28,-2.28 -0.52,-6.14 -1.60,-10.40"/>
    </edge>
    <edge id=":gneJ0_8" function="internal">
        <lane id=":gneJ0_8_0" index="0" speed="6.51" length="9.03" shape="4.80,-10.40 5.15,-7.95 6.20,-6.20 7.95,-5.15 10.40,-4.80"/>
    </edge>
    <edge id=":gneJ0_9" function="internal">
        <lane id=":gneJ0_9_0" index="0" speed="13.89" length="20.80" shape="4.80,-10.40 4.80,10.40"/>
        <lane id=":gneJ0_9_1" index="1" speed="13.89" length="20.80" shape="1.60,-10.40 1.60,10.40"/>
    </edge>
    <edge id=":gneJ0_11" function="internal">
        <lane id=":gneJ0_11_0" index="0" speed="9.02" length="18.33" shape="1.60,-10.40 0.52,-6.14 -2.28,-2.28 -6.14,0.52 -10.40,1.60"/>
    </edge>
    <edge id=":gneJ0_12" function="internal">
        <lane id=":gneJ0_12_0" index="0" speed="6.51" length="9.03" shape="-10.40,-4.80 -7.95,-5.15 -6.20,-6.20 -5.15,-7.95 -4.80,-10.40"/>
    </edge>
    <edge id=":gneJ0_13" function="internal">
        <lane id=":gneJ0_13_0" index="0" speed="13.89" length="20.80" shape="-10.40,-4.80 10.40,-4.80"/>
        <lane id=":gneJ0_13_1" index="1" speed="13.89" length="20.80" shape="-10.40,-1.60 10.40,-1.60"/>
    </edge>
    <edge id=":gneJ0_15" function="internal">
        <lane id=":gneJ0_15_0" index="0" speed="9.02" length="18.33" shape="-10.40,-1.60 -6.14,-0.52 -2.28,2.28 0.52,6.14 1.60,10.40"/>
    </edge>

    <edge id="gneE0" from="gneJ0" to="gneJ1" priority="-1">
        <lane id="gneE0_0" index="0" speed="13.89" length="189.60" shape="4.80,10.40 4.80,200.00"/>
        <lane id="gneE0_1" index="1" speed="13.89" length="189.60" shape="1.60,10.40 1.60,200.00"/>
    </edge>
    <edge id="gneE1" from="gneJ1" to="gneJ0" priority="-1">
        <lane id="gneE1_0" index="0" speed="13.89" length="189.60" shape="-4.80,200.00 -4.80,10.40"/>
        <lane id="gneE1_1" index="1" speed="13.89" length="189.60" shape="-1.60,200.00 -1.60,10.40"/>
    </edge>
    <edge id="gneE2" from="gneJ0" to="gneJ2" priority="-1">
        <lane id="gneE2_0" index="0" speed="13.89" length="189.60" shape="10.40,-4.80 200.00,-4.80"/>
        <lane id="gneE2_1" index="1" speed="13.89" length="189.60" shape="10.40,-1.60 200.00,-1.60"/>
    </edge>
    <edge id="gneE3" from="gneJ2" to="gneJ0" priority="-1">
        <lane id="gneE3_0" index="0" speed="13.89" length="189.60" shape="200.00,4.80 10.40,4.80"/>
        <lane id="gneE3_1" index="1" speed="13.89" length="189.60" shape="200.00,1.60 10.40,1.60"/>
    </edge>
    <edge id="gneE4" from="gneJ0" to="gneJ3" priority="-1">
        <lane id="gneE4_0" index="0" speed="13.89" length="189.60" shape="-4.80,-10.40 -4.80,-200.00"/>
        <lane id="gneE4_1" index="1" speed="13.89" length="189.60" shape="-1.60,-10.40 -1.60,-200.00"/>
    </edge>
    <edge id="gneE5" from="gneJ3" to="gneJ0" priority="-1">
        <lane id="gneE5_0" index="0" speed="13.89" length="189.60" shape="4.80,-200.00 4.80,-10.40"/>
        <lane id="gneE5_1" index="1" speed="13.89" length="189.60" shape="1.60,-200.00 1.60,-10.40"/>
    </edge>
    <edge id="gneE6" from="gneJ0" to="gneJ4" priority="-1">
        <lane id="gneE6_0" index="0" speed="13.89" length="189.60" shape="-10.40,4.80 -200.00,4.80"/>
        <lane id="gneE6_1" index="1" speed="13.89" length="189.60" shape="-10.40,1.60 -200.00,1.60"/>
    </edge>
    <edge id="gneE8" from="gneJ4" to="gneJ0" priority="-1">
        <lane id="gneE8_0" index="0" speed="13.89" length="189.60" shape="-200.00,-4.80 -10.40,-4.80"/>
        <lane id="gneE8_1" index="1" speed="13.89" length="189.60" shape="-200.00,-1.60 -10.40,-1.60"/>
    </edge>

    <tlLogic id="gneJ0" type="static" programID="0" offset="0">
        <phase duration="42" state="GGGGGGGGGGGGGGGG"/>
        <phase duration="3"  state="yyyyyyyyyyyyyyyy"/>
        <phase duration="42" state="GGGGGGGGGGGGGGGG"/>
        <phase duration="3"  state="yyyyyyyyyyyyyyyy"/>
    </tlLogic>

    <junction id="gneJ0" type="traffic_light_unregulated" x="0.00" y="0.00" incLanes="gneE1_0 gneE1_1 gneE3_0 gneE3_1 gneE5_0 gneE5_1 gneE8_0 gneE8_1" intLanes=":gneJ0_0_0 :gneJ0_1_0 :gneJ0_1_1 :gneJ0_3_0 :gneJ0_4_0 :gneJ0_5_0 :gneJ0_5_1 :gneJ0_7_0 :gneJ0_8_0 :gneJ0_9_0 :gneJ0_9_1 :gneJ0_11_0 :gneJ0_12_0 :gneJ0_13_0 :gneJ0_13_1 :gneJ0_15_0" shape="-6.40,10.40 6.40,10.40 6.84,8.18 7.40,7.40 8.18,6.84 9.18,6.51 10.40,6.40 10.40,-6.40 8.18,-6.84 7.40,-7.40 6.84,-8.18 6.51,-9.18 6.40,-10.40 -6.40,-10.40 -6.84,-8.18 -7.40,-7.40 -8.18,-6.84 -9.18,-6.51 -10.40,-6.40 -10.40,6.40 -8.18,6.84 -7.40,7.40 -6.84,8.18 -6.51,9.18"/>
    <junction id="gneJ1" type="dead_end" x="0.00" y="200.00" incLanes="gneE0_0 gneE0_1" intLanes="" shape="0.00,200.00 6.40,200.00 0.00,200.00"/>
    <junction id="gneJ2" type="dead_end" x="200.00" y="0.00" incLanes="gneE2_0 gneE2_1" intLanes="" shape="200.00,0.00 200.00,-6.40 200.00,0.00"/>
    <junction id="gneJ3" type="dead_end" x="0.00" y="-200.00" incLanes="gneE4_0 gneE4_1" intLanes="" shape="0.00,-200.00 -6.40,-200.00 0.00,-200.00"/>
    <junction id="gneJ4" type="dead_end" x="-200.00" y="0.00" incLanes="gneE6_0 gneE6_1" intLanes="" shape="-200.00,0.00 -200.00,6.40 -200.00,0.00"/>

    <connection from="gneE1" to="gneE6" fromLane="0" toLane="0" via=":gneJ0_0_0" tl="gneJ0" linkIndex="0" dir="r" state="O"/>
    <connection from="gneE1" to="gneE4" fromLane="0" toLane="0" via=":gneJ0_1_0" tl="gneJ0" linkIndex="1" dir="s" state="O"/>
    <connection from="gneE1" to="gneE4" fromLane="1" toLane="1" via=":gneJ0_1_1" tl="gneJ0" linkIndex="2" dir="s" state="O"/>
    <connection from="gneE1" to="gneE2" fromLane="1" toLane="1" via=":gneJ0_3_0" tl="gneJ0" linkIndex="3" dir="l" state="O"/>
    <connection from="gneE3" to="gneE0" fromLane="0" toLane="0" via=":gneJ0_4_0" tl="gneJ0" linkIndex="4" dir="r" state="O"/>
    <connection from="gneE3" to="gneE6" fromLane="0" toLane="0" via=":gneJ0_5_0" tl="gneJ0" linkIndex="5" dir="s" state="O"/>
    <connection from="gneE3" to="gneE6" fromLane="1" toLane="1" via=":gneJ0_5_1" tl="gneJ0" linkIndex="6" dir="s" state="O"/>
    <connection from="gneE3" to="gneE4" fromLane="1" toLane="1" via=":gneJ0_7_0" tl="gneJ0" linkIndex="7" dir="l" state="O"/>
    <connection from="gneE5" to="gneE2" fromLane="0" toLane="0" via=":gneJ0_8_0" tl="gneJ0" linkIndex="8" dir="r" state="O"/>
    <connection from="gneE5" to="gneE0" fromLane="0" toLane="0" via=":gneJ0_9_0" tl="gneJ0" linkIndex="9" dir="s" state="O"/>
    <connection from="gneE5" to="gneE0" fromLane="1" toLane="1" via=":gneJ0_9_1" tl="gneJ0" linkIndex="10" dir="s" state="O"/>
    <connection from="gneE5" to="gneE6" fromLane="1" toLane="1" via=":gneJ0_11_0" tl="gneJ0" linkIndex="11" dir="l" state="O"/>
    <connection from="gneE8" to="gneE4" fromLane="0" toLane="0" via=":gneJ0_12_0" tl="gneJ0" linkIndex="12" dir="r" state="O"/>
    <connection from="gneE8" to="gneE2" fromLane="0" toLane="0" via=":gneJ0_13_0" tl="gneJ0" linkIndex="13" dir="s" state="O"/>
    <connection from="gneE8" to="gneE2" fromLane="1" toLane="1" via=":gneJ0_13_1" tl="gneJ0" linkIndex="14" dir="s" state="O"/>
    <connection from="gneE8" to="gneE0" fromLane="1" toLane="1" via=":gneJ0_15_0" tl="gneJ0" linkIndex="15" dir="l" state="O"/>

    <connection from=":gneJ0_0" to="gneE6" fromLane="0" toLane="0" dir="r" state="M"/>
    <connection from=":gneJ0_1" to="gneE4" fromLane="0" toLane="0" dir="s" state="M"/>
    <connection from=":gneJ0_1" to="gneE4" fromLane="1" toLane="1" dir="s" state="M"/>
    <connection from=":gneJ0_3" to="gneE2" fromLane="0" toLane="1" dir="l" state="M"/>
    <connection from=":gneJ0_4" to="gneE0" fromLane="0" toLane="0" dir="r" state="M"/>
    <connection from=":gneJ0_5" to="gneE6" fromLane="0" toLane="0" dir="s" state="M"/>
    <connection from=":gneJ0_5" to="gneE6" fromLane="1" toLane="1" dir="s" state="M"/>
    <connection from=":gneJ0_7" to="gneE4" fromLane="0" toLane="1" dir="l" state="M"/>
    <connection from=":gneJ0_8" to="gneE2" fromLane="0" toLane="0" dir="r" state="M"/>
    <connection from=":gneJ0_9" to="gneE0" fromLane="0" toLane="0" dir="s" state="M"/>
    <connection from=":gneJ0_9" to="gneE0" fromLane="1" toLane="1" dir="s" state="M"/>
    <connection from=":gneJ0_11" to="gneE6" fromLane="0" toLane="1" dir="l" state="M"/>
    <connection from=":gneJ0_12" to="gneE4" fromLane="0" toLane="0" dir="r" state="M"/>
    <connection from=":gneJ0_13" to="gneE2" fromLane="0" toLane="0" dir="s" state="M"/>
    <connection from=":gneJ0_13" to="gneE2" fromLane="1" toLane="1" dir="s" state="M"/>
    <connection from=":gneJ0_15" to="gneE0" fromLane="0" toLane="1" dir="l" state="M"/>

</net>
