<?xml version="1.0" encoding="UTF-8"?>

<!-- generated on 09/18/19 20:08:36 by Eclipse SUMO duarouter Version 1.0.0
<configuration xmlns:xsi="http://www.w3.org/2001/XMLSchema-instance" xsi:noNamespaceSchemaLocation="http://sumo.dlr.de/xsd/duarouterConfiguration.xsd">

    <input>
        <net-file value="grid.net.xml"/>
        <route-files value="trips.trips.xml"/>
    </input>

    <output>
        <output-file value="grid.rou.xml"/>
        <alternatives-output value="grid.rou.alt.xml"/>
    </output>

</configuration>
-->

<routes xmlns:xsi="http://www.w3.org/2001/XMLSchema-instance" xsi:noNamespaceSchemaLocation="http://sumo.dlr.de/xsd/routes_file.xsd">
    <vType id="type1" accel="2.6" decel="4.5" sigma="0.5" length="5" maxSpeed="70.0" minGap="20.0" carFollowModel="Wiedemann" speedFactor="1.5"/>
    <vType id="type2" accel="2.6" decel="4.5" sigma="0.5" length="5" maxSpeed="70.0" minGap="20.0" carFollowModel="Wiedemann" speedFactor="0.5"/>
    <vehicle id="0" depart="0.00" departSpeed="10.00" type="type2">
        <route edges="gneE0"/>
    </vehicle>
    
    <vehicle id="1" depart="0.00" departSpeed="20.00" type="type1">
    <route edges="gneE0"/>
    </vehicle>
  
    
</routes>
