<?xml version="1.0" encoding="UTF-8"?>

<!-- generated on 09/18/19 20:56:21 by Eclipse SUMO duarouter Version 1.0.0
<configuration xmlns:xsi="http://www.w3.org/2001/XMLSchema-instance" xsi:noNamespaceSchemaLocation="http://sumo.dlr.de/xsd/duarouterConfiguration.xsd">

    <input>
        <net-file value="grid.net.xml"/>
        <route-files value="trips.trips.xml"/>
    </input>

    <output>
        <output-file value="grid.rou.xml"/>
        <alternatives-output value="grid.rou.alt.xml"/>
    </output>

</configuration>
-->

<routes xmlns:xsi="http://www.w3.org/2001/XMLSchema-instance" xsi:noNamespaceSchemaLocation="http://sumo.dlr.de/xsd/routes_file.xsd">
    <vehicle id="0" depart="0.00">
        <route edges="gneE4 -gneE5 gneE12 gneE3 gneE8 -gneE9 -gneE1"/>
    </vehicle>
    <vehicle id="1" depart="1.00">
        <route edges="-gneE10 -gneE2 -gneE0 gneE18"/>
    </vehicle>
    <vehicle id="2" depart="2.00">
        <route edges="-gneE4 -gneE2 gneE3"/>
    </vehicle>
    <vehicle id="3" depart="3.00">
        <route edges="-gneE17 -gneE10 gneE4 gneE14"/>
    </vehicle>
    <vehicle id="4" depart="4.00">
        <route edges="-gneE4 -gneE2 -gneE0 -gneE6 gneE20"/>
    </vehicle>
    <vehicle id="5" depart="5.00">
        <route edges="gneE3 gneE8 -gneE9 gneE11 gneE17"/>
    </vehicle>
    <vehicle id="6" depart="6.00">
        <route edges="gneE3 gneE8 -gneE9 -gneE1 -gneE0 -gneE6 -gneE7 -gneE3"/>
    </vehicle>
    <vehicle id="7" depart="7.00">
        <route edges="-gneE15 gneE10 -gneE11 -gneE1"/>
    </vehicle>
    <vehicle id="8" depart="8.00">
        <route edges="-gneE2 -gneE0 gneE5"/>
    </vehicle>
    <vehicle id="9" depart="9.00">
        <route edges="gneE11 -gneE10 -gneE2 gneE3 gneE7"/>
    </vehicle>
    <vehicle id="10" depart="10.00">
        <route edges="gneE12 gneE2 gneE4 gneE14"/>
    </vehicle>
    <vehicle id="11" depart="11.00">
        <route edges="-gneE10 -gneE2 -gneE0 -gneE6 -gneE7 -gneE3"/>
    </vehicle>
    <vehicle id="12" depart="12.00">
        <route edges="-gneE7 -gneE3 gneE2 gneE10"/>
    </vehicle>
    <vehicle id="13" depart="13.00">
        <route edges="gneE1 gneE9 gneE23"/>
    </vehicle>
    <vehicle id="14" depart="14.00">
        <route edges="-gneE18 -gneE6 -gneE7 gneE8 -gneE9"/>
    </vehicle>
    <vehicle id="15" depart="15.00">
        <route edges="gneE2 gneE10 -gneE11 gneE9 gneE23"/>
    </vehicle>
    <vehicle id="16" depart="16.00">
        <route edges="-gneE3 gneE1 gneE9 -gneE8"/>
    </vehicle>
    <vehicle id="17" depart="17.00">
        <route edges="-gneE8 -gneE3 gneE2 gneE10 -gneE11"/>
    </vehicle>
    <vehicle id="18" depart="18.00">
        <route edges="-gneE23 -gneE8 -gneE3 -gneE0 -gneE6"/>
    </vehicle>
    <vehicle id="19" depart="19.00">
        <route edges="gneE1 gneE11"/>
    </vehicle>
    <vehicle id="20" depart="20.00">
        <route edges="-gneE16 -gneE10 gneE4 gneE14"/>
    </vehicle>
    <vehicle id="21" depart="21.00">
        <route edges="-gneE3 gneE1 gneE11 -gneE10"/>
    </vehicle>
    <vehicle id="22" depart="22.00">
        <route edges="-gneE19 -gneE1 gneE3 gneE8"/>
    </vehicle>
    <vehicle id="23" depart="23.00">
        <route edges="gneE5 -gneE4 -gneE2 gneE1 gneE11 -gneE10 gneE4 -gneE5"/>
    </vehicle>
    <vehicle id="24" depart="24.00">
        <route edges="-gneE10 -gneE2 gneE1 gneE11 gneE16"/>
    </vehicle>
    <vehicle id="25" depart="25.00">
        <route edges="-gneE7 gneE8 -gneE9 -gneE1"/>
    </vehicle>
    <vehicle id="26" depart="26.00">
        <route edges="-gneE22 gneE8 -gneE9 gneE11 -gneE10 -gneE2"/>
    </vehicle>
    <vehicle id="27" depart="27.00">
        <route edges="gneE10 -gneE11 -gneE1 gneE2 gneE4 -gneE5 gneE12"/>
    </vehicle>
    <vehicle id="28" depart="28.00">
        <route edges="-gneE9 -gneE1 gneE2"/>
    </vehicle>
    <vehicle id="29" depart="29.00">
        <route edges="gneE8 -gneE9 -gneE1 gneE2 gneE4 -gneE5"/>
    </vehicle>
    <vehicle id="30" depart="30.00">
        <route edges="-gneE19 gneE11 gneE17"/>
    </vehicle>
    <vehicle id="31" depart="31.00">
        <route edges="-gneE15 gneE10"/>
    </vehicle>
    <vehicle id="32" depart="32.00">
        <route edges="-gneE17 -gneE11 -gneE1 gneE2 gneE10"/>
    </vehicle>
    <vehicle id="33" depart="33.00">
        <route edges="-gneE14 -gneE5 gneE12 gneE1 gneE11"/>
    </vehicle>
    <vehicle id="34" depart="34.00">
        <route edges="gneE12 gneE2 gneE4 gneE14"/>
    </vehicle>
    <vehicle id="35" depart="35.00">
        <route edges="-gneE22 gneE7 gneE20"/>
    </vehicle>
    <vehicle id="36" depart="36.00">
        <route edges="-gneE21 -gneE7 -gneE3 gneE1 gneE11 gneE16"/>
    </vehicle>
    <vehicle id="37" depart="37.00">
        <route edges="-gneE4 -gneE2 gneE3 gneE8 -gneE9"/>
    </vehicle>
    <vehicle id="38" depart="38.00">
        <route edges="gneE11 -gneE10 -gneE2 -gneE0 gneE5 -gneE4"/>
    </vehicle>
    <vehicle id="39" depart="39.00">
        <route edges="gneE1 gneE11 -gneE10 gneE4 gneE13"/>
    </vehicle>
    <vehicle id="40" depart="40.00">
        <route edges="gneE9 -gneE8 -gneE3 gneE1 gneE11 gneE17"/>
    </vehicle>
    <vehicle id="41" depart="41.00">
        <route edges="-gneE8 -gneE3 -gneE0 -gneE6"/>
    </vehicle>
    <vehicle id="42" depart="42.00">
        <route edges="gneE11 -gneE10 -gneE2 -gneE0 -gneE6 gneE20"/>
    </vehicle>
    <vehicle id="43" depart="43.00">
        <route edges="gneE4 -gneE5 gneE12 gneE3"/>
    </vehicle>
    <vehicle id="44" depart="44.00">
        <route edges="-gneE0 -gneE6"/>
    </vehicle>
    <vehicle id="45" depart="45.00">
        <route edges="-gneE2 gneE3 gneE22"/>
    </vehicle>
    <vehicle id="46" depart="46.00">
        <route edges="-gneE9 -gneE1 gneE3 gneE7"/>
    </vehicle>
    <vehicle id="47" depart="47.00">
        <route edges="-gneE1 gneE3 gneE8"/>
    </vehicle>
    <vehicle id="48" depart="48.00">
        <route edges="-gneE2 gneE1 gneE9"/>
    </vehicle>
    <vehicle id="49" depart="49.00">
        <route edges="-gneE19 -gneE1 -gneE0 gneE5"/>
    </vehicle>
    <vehicle id="50" depart="50.00">
        <route edges="-gneE22 gneE8 -gneE9 gneE11 -gneE10"/>
    </vehicle>
    <vehicle id="51" depart="51.00">
        <route edges="gneE4 -gneE5 -gneE6 -gneE7 -gneE3 -gneE0 gneE5 -gneE4"/>
    </vehicle>
    <vehicle id="52" depart="52.00">
        <route edges="-gneE11 gneE9 -gneE8 -gneE3 gneE1"/>
    </vehicle>
    <vehicle id="53" depart="53.00">
        <route edges="-gneE21 -gneE7 gneE8 gneE24"/>
    </vehicle>
    <vehicle id="54" depart="54.00">
        <route edges="-gneE20 -gneE7 gneE22"/>
    </vehicle>
    <vehicle id="55" depart="55.00">
        <route edges="gneE5 -gneE4 -gneE2 gneE3 gneE7"/>
    </vehicle>
    <vehicle id="56" depart="56.00">
        <route edges="-gneE1 gneE2 gneE4 gneE13"/>
    </vehicle>
    <vehicle id="57" depart="57.00">
        <route edges="-gneE18 -gneE6 -gneE7 -gneE3 -gneE0 gneE18"/>
    </vehicle>
    <vehicle id="58" depart="58.00">
        <route edges="-gneE9 -gneE1 -gneE0 -gneE6"/>
    </vehicle>
    <vehicle id="59" depart="59.00">
        <route edges="-gneE1 -gneE0 -gneE6 -gneE7"/>
    </vehicle>
    <vehicle id="60" depart="60.00">
        <route edges="-gneE15 gneE10 -gneE11 gneE9 gneE24"/>
    </vehicle>
    <vehicle id="61" depart="61.00">
        <route edges="-gneE15 -gneE2 gneE3"/>
    </vehicle>
    <vehicle id="62" depart="62.00">
        <route edges="-gneE23 -gneE9 -gneE1 gneE3"/>
    </vehicle>
    <vehicle id="63" depart="63.00">
        <route edges="-gneE4 gneE10 gneE17"/>
    </vehicle>
    <vehicle id="64" depart="64.00">
        <route edges="-gneE11 -gneE1 gneE2 gneE10 gneE17"/>
    </vehicle>
    <vehicle id="65" depart="65.00">
        <route edges="-gneE1 gneE2 gneE10 gneE17"/>
    </vehicle>
    <vehicle id="66" depart="66.00">
        <route edges="gneE2 gneE10"/>
    </vehicle>
    <vehicle id="67" depart="67.00">
        <route edges="-gneE22 -gneE3 -gneE0 -gneE6"/>
    </vehicle>
    <vehicle id="68" depart="68.00">
        <route edges="-gneE10 -gneE2 gneE1 gneE19"/>
    </vehicle>
    <vehicle id="69" depart="69.00">
        <route edges="-gneE22 gneE8 -gneE9 -gneE1"/>
    </vehicle>
    <vehicle id="70" depart="70.00">
        <route edges="-gneE14 -gneE4"/>
    </vehicle>
    <vehicle id="71" depart="71.00">
        <route edges="-gneE7 -gneE3 gneE1 gneE11 gneE17"/>
    </vehicle>
    <vehicle id="72" depart="72.00">
        <route edges="-gneE24 -gneE9 -gneE1 gneE2 gneE4 gneE14"/>
    </vehicle>
    <vehicle id="73" depart="73.00">
        <route edges="gneE8 -gneE9 -gneE1 gneE2 gneE4"/>
    </vehicle>
    <vehicle id="74" depart="74.00">
        <route edges="gneE9 -gneE8 -gneE3 gneE1 gneE11 -gneE10"/>
    </vehicle>
    <vehicle id="75" depart="75.00">
        <route edges="-gneE1 -gneE0 gneE5 -gneE4 -gneE2"/>
    </vehicle>
    <vehicle id="76" depart="76.00">
        <route edges="-gneE2 gneE3 gneE22"/>
    </vehicle>
    <vehicle id="77" depart="77.00">
        <route edges="-gneE3 gneE1 gneE11 -gneE10"/>
    </vehicle>
    <vehicle id="78" depart="78.00">
        <route edges="-gneE11 -gneE1 gneE2 gneE4 -gneE5 gneE12"/>
    </vehicle>
    <vehicle id="79" depart="79.00">
        <route edges="gneE5 -gneE4 -gneE2 gneE3 gneE8 -gneE9"/>
    </vehicle>
</routes>
