<?xml version="1.0" encoding="UTF-8"?>

<!-- generated on 11/17/19 15:25:09 by SUMO polyconvert Version 0.32.0
<?xml version="1.0" encoding="UTF-8"?>

<configuration xmlns:xsi="http://www.w3.org/2001/XMLSchema-instance" xsi:noNamespaceSchemaLocation="http://sumo.dlr.de/xsd/polyconvertConfiguration.xsd">

    <input>
        <net-file value="map.net.xml"/>
        <osm-files value="map.osm"/>
    </input>

    <output>
        <output-file value="map.poly.xml"/>
    </output>

    <processing>
        <poi-layer-offset value="5"/>
    </processing>

</configuration>
-->

<additional xmlns:xsi="http://www.w3.org/2001/XMLSchema-instance" xsi:noNamespaceSchemaLocation="http://sumo.dlr.de/xsd/additional_file.xsd">
    <location netOffset="-240432.56,-3545011.45" convBoundary="-583.98,-4606.25,5748.64,12832.38" origBoundary="120.243077,31.969977,120.310638,32.128194" projParameter="+proj=utm +zone=51 +ellps=WGS84 +datum=WGS84 +units=m +no_defs"/>

    <poly id="247605685" type="building" color="207,245,201" fill="1" layer="-2.00" shape="1372.45,1174.78 1358.25,1145.21 1343.03,1131.89 1329.68,1117.26 1312.62,1124.78 1290.40,1079.02 1308.88,1070.99 1305.56,1046.18 1295.81,1030.20 1366.41,992.03 1362.84,982.67 1424.42,957.31 1414.44,919.92 1464.56,904.62 1469.49,893.31 1406.87,745.70 1454.70,727.47 1465.67,729.40 1501.04,807.12 1482.11,822.72 1479.15,830.83 1479.40,840.60 1513.05,919.15 1545.38,907.93 1611.20,1019.07 1608.61,1029.38 1509.66,1110.34 1500.03,1117.67 1372.45,1174.78"/>
  
    <poly id="331769615" type="building" color="209,209,204" fill="1" layer="-3.00" shape="2638.26,1608.94 2564.53,1639.16 2567.00,1646.16 2547.46,1655.74 2539.84,1655.43 2475.93,1676.71 2459.98,1671.49 2426.65,1555.83 2401.09,1477.48 2453.28,1465.33 2486.66,1461.96 2536.18,1455.16 2560.92,1450.50 2552.32,1391.17 2520.97,1394.48 2518.04,1378.90 2483.73,1385.83 2477.91,1366.29 2578.70,1340.78 2585.31,1362.07 2597.15,1358.74 2609.99,1425.54 2680.03,1407.62 2798.88,1374.35 2848.77,1356.94 2889.40,1446.56 2901.26,1472.72 2911.68,1501.08 2648.35,1604.92 2638.26,1608.94"/>
    <poly id="331770438" type="building" color="237,199,255" fill="1" layer="-1.00" shape="1674.05,1140.40 1878.60,1046.40 1771.42,818.96 1566.66,904.89 1674.05,1140.40"/>
    <poly id="331770439" type="building" color="235,235,227" fill="1" layer="-3.00" shape="1564.34,892.84 1372.49,422.64 1570.78,401.47 1875.18,509.46 2064.29,450.57 2083.07,511.67 2095.33,575.21 2115.71,668.27 2184.93,900.07 2187.80,909.70 2321.60,1357.72 1830.93,1487.71 1700.15,1185.57 1913.78,1073.77 1793.11,794.19 1564.34,892.84"/>
    <poly id="331770440" type="building" color="237,199,255" fill="1" layer="-1.00" shape="1550.87,1563.43 1383.55,1204.28 1621.87,1058.34 1804.88,1500.47 1550.87,1563.43"/>
    <poly id="331770441" type="building" color="235,235,227" fill="1" layer="-3.00" shape="1588.80,1618.99 1739.37,1958.16 2258.50,2595.03 2646.35,2350.62 3223.48,1986.95 3176.31,1667.57 3024.40,1690.67 2532.77,1909.37 2477.76,1940.02 2400.36,1693.33 2394.09,1652.04 2378.88,1652.68 2348.30,1666.56 2280.77,1703.35 2170.57,1777.54 2155.06,1753.22 2125.22,1708.78 2108.99,1628.45 2084.65,1507.93 2081.11,1460.63 2080.05,1446.48 1588.80,1618.99"/>
    <poly id="331770443" type="building" color="209,209,204" fill="1" layer="-3.00" shape="1274.61,1869.00 1562.70,1766.41 1392.10,1381.71 1074.65,1502.81 1150.19,1601.84 1274.61,1869.00"/>
    <poly id="331770445" type="building" color="237,199,255" fill="1" layer="-1.00" shape="1038.80,1060.63 1191.83,981.44 1160.17,846.66 1063.11,899.55 972.94,944.19 1038.80,1060.63"/>
    <poly id="414687260" type="building" color="181,209,209" fill="1" layer="-4.00" shape="2470.85,1700.49 2459.98,1671.49 2475.93,1676.71 2539.84,1655.43 2547.46,1655.74 2567.00,1646.16 2564.53,1639.16 2638.26,1608.94 2648.35,1604.92 2911.68,1501.08 3051.06,1445.72 3132.93,1413.89 3135.71,1424.00 3137.67,1431.18 2983.84,1499.90 2919.46,1520.71 2895.60,1526.98 2644.75,1629.45 2571.18,1656.41 2568.52,1651.68 2549.43,1658.46 2543.20,1662.91 2543.36,1669.21 2470.85,1700.49"/>
    <poly id="414687261" type="building" color="181,209,209" fill="1" layer="-4.00" shape="2400.36,1693.33 2477.76,1940.02 2497.55,1994.62 2537.70,2118.77 2580.42,2224.16 2600.51,2276.65 2617.88,2301.95 2630.30,2331.91 2646.35,2350.62 2669.84,2371.80 2706.37,2352.20 2667.99,2298.16 2630.75,2228.95 2585.97,2122.60 2561.48,2056.09 2536.74,1980.00 2532.92,1949.32 2532.77,1909.37 2470.85,1700.49 2459.98,1671.49 2426.65,1555.83 2401.09,1477.48 2375.28,1389.06 2327.50,1404.90 2382.67,1601.35 2394.09,1652.04 2400.36,1693.33"/>
    <poly id="414687262" type="building" color="181,209,209" fill="1" layer="-4.00" shape="2394.09,1652.04 2378.88,1652.68 2348.30,1666.56 2280.77,1703.35 2170.57,1777.54 2155.06,1753.22 2327.95,1643.61 2358.85,1622.14 2382.67,1601.35 2394.09,1652.04"/>
    <poly id="414687263" type="building" color="209,209,204" fill="1" layer="-3.00" shape="2327.50,1404.90 2290.62,1410.38 2169.15,1439.52 2081.11,1460.63 2084.65,1507.93 2108.99,1628.45 2125.22,1708.78 2155.06,1753.22 2327.95,1643.61 2358.85,1622.14 2382.67,1601.35 2327.50,1404.90"/>
    <poly id="414687268" type="building" color="255,230,230" fill="1" layer="-1.00" shape="2540.86,1610.23 2610.83,1589.79 2607.78,1579.42 2537.80,1599.86 2540.86,1610.23"/>
    <poly id="414687269" type="building" color="255,230,230" fill="1" layer="-1.00" shape="2468.74,1555.78 2479.83,1592.54 2607.93,1554.23 2596.84,1517.47 2468.74,1555.78"/>
    <poly id="414687271" type="building" color="255,230,230" fill="1" layer="-1.00" shape="2230.90,1616.28 2278.75,1602.96 2270.80,1574.67 2222.95,1588.00 2230.90,1616.28"/>
    <poly id="414687272" type="building" color="255,230,230" fill="1" layer="-1.00" shape="2490.28,1635.47 2499.33,1661.96 2539.56,1648.32 2530.50,1621.84 2490.28,1635.47"/>
    <poly id="414687273" type="building" color="255,230,230" fill="1" layer="-1.00" shape="2503.11,1470.88 2505.94,1480.78 2534.39,1472.75 2531.57,1462.84 2503.11,1470.88"/>
    <poly id="414687274" type="building" color="255,230,230" fill="1" layer="-1.00" shape="2544.58,1637.13 2546.32,1642.47 2563.17,1637.00 2561.43,1631.67 2544.58,1637.13"/>
    <poly id="414687275" type="building" color="255,230,230" fill="1" layer="-1.00" shape="2734.38,1541.77 2739.12,1557.15 2768.81,1548.08 2764.07,1532.69 2734.38,1541.77"/>
    <poly id="414687281" type="building" color="255,230,230" fill="1" layer="-1.00" shape="2622.31,1511.78 2634.19,1550.11 2763.01,1510.52 2751.14,1472.20 2622.31,1511.78"/>
    <poly id="414687284" type="building" color="255,230,230" fill="1" layer="-1.00" shape="2198.99,1457.11 2236.73,1445.56 2232.10,1430.52 2194.35,1442.08 2198.99,1457.11"/>
    <poly id="414687286" type="building" color="255,230,230" fill="1" layer="-1.00" shape="2558.92,1612.80 2563.83,1630.18 2593.54,1621.85 2588.63,1604.49 2558.92,1612.80"/>
    <poly id="414687288" type="building" color="255,230,230" fill="1" layer="-1.00" shape="2542.31,1466.61 2547.95,1484.46 2588.21,1471.83 2582.56,1453.99 2542.31,1466.61"/>
    <poly id="414687290" type="building" color="255,230,230" fill="1" layer="-1.00" shape="2543.48,1634.13 2560.84,1628.66 2555.79,1612.79 2538.43,1618.28 2543.48,1634.13"/>
    <poly id="414687292" type="building" color="255,230,230" fill="1" layer="-1.00" shape="2597.31,1496.01 2588.21,1471.83 2575.72,1476.50 2584.83,1500.67 2597.31,1496.01"/>
    <poly id="414687293" type="building" color="255,230,230" fill="1" layer="-1.00" shape="2766.08,1461.48 2773.95,1493.95 2825.61,1481.55 2817.75,1449.07 2766.08,1461.48"/>
    <poly id="414687294" type="building" color="255,230,230" fill="1" layer="-1.00" shape="2313.38,1488.53 2337.02,1581.30 2366.12,1573.95 2342.48,1481.18 2313.38,1488.53"/>
    <poly id="414687297" type="building" color="255,230,230" fill="1" layer="-1.00" shape="2206.36,1598.48 2188.94,1604.04 2192.65,1615.58 2210.07,1610.03 2206.36,1598.48"/>
    <poly id="414687298" type="building" color="255,230,230" fill="1" layer="-1.00" shape="2456.81,1514.95 2462.23,1532.67 2518.59,1515.60 2513.17,1497.88 2456.81,1514.95"/>
    <poly id="414687299" type="building" color="255,230,230" fill="1" layer="-1.00" shape="2592.43,1603.88 2597.37,1620.89 2628.08,1612.04 2623.14,1595.04 2592.43,1603.88"/>
    <poly id="414687300" type="building" color="255,230,230" fill="1" layer="-1.00" shape="2538.04,1498.27 2542.68,1511.28 2581.13,1497.69 2576.49,1484.68 2538.04,1498.27"/>
    <poly id="414687301" type="building" color="255,230,230" fill="1" layer="-1.00" shape="2506.95,1623.20 2523.58,1619.00 2521.28,1610.00 2504.66,1614.21 2506.95,1623.20"/>
    <poly id="414687302" type="building" color="255,230,230" fill="1" layer="-1.00" shape="2785.82,1512.54 2794.40,1541.24 2844.10,1526.50 2835.51,1497.80 2785.82,1512.54"/>
    <poly id="414687303" type="building" color="255,230,230" fill="1" layer="-1.00" shape="2712.38,1624.84 2729.93,1668.61 2797.72,1641.66 2780.17,1597.90 2712.38,1624.84"/>
    <poly id="414687304" type="building" color="255,230,230" fill="1" layer="-1.00" shape="2304.88,1573.54 2278.81,1465.18 2251.52,1471.69 2277.57,1580.05 2304.88,1573.54"/>
    <poly id="414687306" type="building" color="255,230,230" fill="1" layer="-1.00" shape="2447.49,1477.34 2452.83,1496.18 2498.16,1483.43 2492.81,1464.57 2447.49,1477.34"/>
    <poly id="414687307" type="building" color="255,230,230" fill="1" layer="-1.00" shape="2175.01,1642.17 2197.61,1636.12 2188.94,1604.04 2166.34,1610.09 2175.01,1642.17"/>
    <poly id="414687330" type="building" color="209,209,204" fill="1" layer="-3.00" shape="2895.60,1526.98 2919.46,1520.71 2983.84,1499.90 3024.40,1690.67 2532.77,1909.37 2470.85,1700.49 2543.36,1669.21 2543.20,1662.91 2549.43,1658.46 2568.52,1651.68 2571.18,1656.41 2644.75,1629.45 2895.60,1526.98"/>
    <poly id="414690901" type="building" color="181,209,209" fill="1" layer="-4.00" shape="2323.91,1383.30 2373.81,1371.44 2242.37,908.30 2186.00,922.45 2321.60,1357.72 2323.91,1383.30"/>
    <poly id="414690905" type="building" color="181,209,209" fill="1" layer="-4.00" shape="2184.93,900.07 2236.51,887.24 2120.14,499.24 2102.65,443.28 2064.29,450.57 2083.07,511.67 2095.33,575.21 2115.71,668.27 2184.93,900.07"/>

    <poly id="414751297" type="building" color="255,230,230" fill="1" layer="-1.00" shape="2482.25,1368.69 2553.63,1354.15 2559.53,1381.87 2562.94,1386.34 2558.27,1392.26 2552.42,1386.23 2554.68,1380.49 2522.87,1386.20 2519.22,1372.29 2485.09,1380.85 2482.25,1368.69"/>
    <poly id="414751298" type="building" color="255,230,230" fill="1" layer="-1.00" shape="2207.27,1640.96 2204.56,1647.19 2204.66,1653.98 2207.57,1660.12 2212.76,1664.52 2219.33,1666.40 2224.99,1665.77 2230.09,1663.23 2233.98,1659.10 2236.20,1653.86 2236.45,1648.19 2234.71,1642.79 2230.54,1637.79 2224.74,1634.83 2218.22,1634.39 2212.07,1636.56 2207.27,1640.96"/>
    <poly id="414751299" type="building" color="255,230,230" fill="1" layer="-1.00" shape="2748.04,1411.33 2751.35,1421.75 2795.38,1407.89 2792.07,1397.47 2748.04,1411.33"/>
    <poly id="414751300" type="building" color="255,230,230" fill="1" layer="-1.00" shape="2132.57,1624.68 2136.16,1637.27 2166.62,1628.68 2163.04,1616.09 2132.57,1624.68"/>
    <poly id="414751301" type="building" color="255,230,230" fill="1" layer="-1.00" shape="2844.93,1493.17 2862.40,1486.67 2858.26,1475.64 2840.80,1482.14 2844.93,1493.17"/>
    <poly id="414751302" type="building" color="255,230,230" fill="1" layer="-1.00" shape="2715.69,1410.62 2719.78,1422.19 2736.88,1416.21 2732.79,1404.64 2715.69,1410.62"/>
    <poly id="414751303" type="building" color="255,230,230" fill="1" layer="-1.00" shape="2694.71,1413.05 2748.33,1397.44 2746.16,1390.09 2692.55,1405.70 2694.71,1413.05"/>
    <poly id="414751304" type="building" color="255,230,230" fill="1" layer="-1.00" shape="2828.33,1392.65 2854.32,1382.40 2847.97,1366.45 2821.99,1376.69 2828.33,1392.65"/>
    <poly id="414751305" type="building" color="255,230,230" fill="1" layer="-1.00" shape="2768.09,1397.06 2800.04,1386.80 2796.95,1377.28 2765.01,1387.55 2768.09,1397.06"/>
    <poly id="414751306" type="building" color="255,230,230" fill="1" layer="-1.00" shape="2616.97,1427.37 2618.98,1436.27 2685.41,1421.48 2683.41,1412.58 2616.97,1427.37"/>
    <poly id="414751308" type="building" color="255,230,230" fill="1" layer="-1.00" shape="2711.48,1434.45 2719.49,1462.27 2803.82,1438.18 2795.82,1410.37 2711.48,1434.45"/>
    <poly id="414751309" type="building" color="255,230,230" fill="1" layer="-1.00" shape="2447.63,1539.90 2434.54,1493.29 2418.78,1497.67 2431.88,1544.28 2447.63,1539.90"/>
    <poly id="414751310" type="building" color="255,230,230" fill="1" layer="-1.00" shape="2176.61,1651.58 2128.09,1638.42 2125.40,1648.25 2173.91,1661.41 2176.61,1651.58"/>
    <poly id="414751311" type="building" color="255,230,230" fill="1" layer="-1.00" shape="2609.47,1451.90 2622.42,1491.00 2702.39,1464.76 2689.45,1425.66 2609.47,1451.90"/>
    <poly id="414751314" type="building" color="235,235,227" fill="1" layer="-3.00" shape="2401.09,1477.48 2375.28,1389.06 2477.91,1366.29 2483.73,1385.83 2518.04,1378.90 2520.97,1394.48 2552.32,1391.17 2560.92,1450.50 2536.18,1455.16 2486.66,1461.96 2453.28,1465.33 2401.09,1477.48"/>
    <poly id="414751315" type="building" color="235,235,227" fill="1" layer="-3.00" shape="2578.70,1340.78 2607.16,1329.96 2676.84,1307.51 2776.18,1264.88 2857.03,1233.07 2987.31,1180.84 3044.76,1156.18 3072.43,1167.34 3075.78,1179.62 3087.85,1225.75 3019.09,1264.57 2944.45,1270.99 2917.51,1278.99 2950.03,1361.70 2908.71,1382.67 2927.66,1430.14 2889.40,1446.56 2848.77,1356.94 2798.88,1374.35 2680.03,1407.62 2609.99,1425.54 2597.15,1358.74 2585.31,1362.07 2578.70,1340.78"/>
    <poly id="426933911" type="building" color="237,199,199" fill="1" layer="-1.00" shape="1661.08,564.73 1723.42,495.90 1835.74,652.50 1743.21,702.97 1661.08,564.73"/>
    <poly id="426933921" type="building" color="235,235,227" fill="1" layer="-3.00" shape="2253.01,882.52 2128.39,452.66 2408.34,397.68 2569.02,808.32 2253.01,882.52"/>
    <poly id="426933923" type="building" color="235,235,227" fill="1" layer="-3.00" shape="2337.35,1157.07 2270.82,907.02 2583.83,847.18 2659.89,1023.75 2693.67,1116.13 2515.88,1151.24 2337.35,1157.07"/>
    <poly id="426933924" type="building" color="235,235,227" fill="1" layer="-3.00" shape="2710.92,1110.37 2673.53,1007.41 2759.74,975.95 2766.83,1098.30 2710.92,1110.37"/>
    <poly id="426933926" type="building" color="237,199,199" fill="1" layer="-1.00" shape="2793.38,1089.64 2800.60,1004.21 2821.67,990.37 2781.36,824.88 2883.78,799.67 2946.76,1068.47 2793.38,1089.64"/>
    <poly id="426933928" type="building" color="235,235,227" fill="1" layer="-3.00" shape="2637.84,1290.68 2631.25,1188.29 2848.32,1145.53 2874.39,1219.15 2637.84,1290.68"/>
    <poly id="426935957" type="building" color="237,199,199" fill="1" layer="-1.00" shape="1197.47,647.96 1166.56,548.81 1368.78,483.12 1402.86,587.24 1295.54,635.38 1283.88,615.49 1197.47,647.96"/>
    <poly id="426935958" type="building" color="255,230,230" fill="1" layer="-1.00" shape="1195.85,823.36 1180.73,830.36 1189.35,850.32 1203.36,843.13 1195.85,823.36"/>
    <poly id="426935959" type="building" color="235,235,227" fill="1" layer="-3.00" shape="1362.84,982.67 1331.18,908.40 1315.64,917.82 1302.57,885.01 1431.80,827.25 1463.58,896.74 1415.49,915.54 1424.42,957.31 1362.84,982.67"/>
    <poly id="691322220" type="building" color="255,230,230" fill="1" layer="-1.00" shape="902.84,949.78 1147.24,812.66 1114.96,746.79 1042.41,780.76 963.26,823.84 863.25,885.24 902.84,949.78"/>
    <poly id="691322220#1" type="building" color="237,199,255" fill="1" layer="-1.00" shape="902.84,949.78 1147.24,812.66 1114.96,746.79 1042.41,780.76 963.26,823.84 863.25,885.24 902.84,949.78"/>
    <poi id="3388704955" type="building" color="237,199,199" layer="4.00" x="1450.66" y="1026.34"/>
    <poi id="3388704961" type="building" color="255,230,230" layer="4.00" x="2569.02" y="808.32"/>
    <poi id="3388711185" type="building" color="237,199,255" layer="4.00" x="1700.82" y="971.55"/>
    <poi id="3388711191" type="building" color="255,230,230" layer="4.00" x="1332.70" y="1655.15"/>
    <poi id="3388711400" type="building" color="255,230,230" layer="4.00" x="2012.02" y="923.32"/>
    <poi id="3388711403" type="building" color="237,199,255" layer="4.00" x="1583.81" y="1317.72"/>
    <poi id="4261903117" type="building" color="237,199,199" layer="4.00" x="1162.37" y="743.74"/>
    <poi id="4261903122" type="building" color="237,199,199" layer="4.00" x="1138.79" y="864.74"/>
    <poi id="4261903123" type="building" color="237,199,255" layer="4.00" x="1163.23" y="958.95"/>
    <poi id="4261903132" type="building" color="237,199,199" layer="4.00" x="1186.10" y="779.67"/>
    <poi id="4261903133" type="building" color="255,230,230" layer="4.00" x="1371.50" y="725.77"/>
    <poi id="4261903134" type="building" color="255,230,230" layer="4.00" x="1358.11" y="772.24"/>
    <poi id="4261903135" type="building" color="237,199,199" layer="4.00" x="1396.28" y="780.07"/>
    <poi id="4262000609" type="building" color="237,199,199" layer="4.00" x="1614.70" y="620.21"/>
    <poi id="4262000610" type="building" color="237,199,199" layer="4.00" x="1547.97" y="676.69"/>
    <poi id="4262000611" type="building" color="237,199,199" layer="4.00" x="1512.62" y="661.06"/>
    <poi id="4262000612" type="building" color="237,199,199" layer="4.00" x="1481.77" y="708.51"/>
    <poi id="4262000613" type="building" color="237,199,199" layer="4.00" x="1577.10" y="619.13"/>
    <poi id="4262000614" type="building" color="237,199,199" layer="4.00" x="1470.26" y="679.81"/>
    <poi id="4262000615" type="building" color="237,199,199" layer="4.00" x="1382.94" y="762.61"/>
    <poi id="4262000616" type="building" color="237,199,199" layer="4.00" x="1226.01" y="811.81"/>
    <poi id="4262000617" type="building" color="237,199,199" layer="4.00" x="1236.58" y="769.22"/>
    <poi id="4262000618" type="building" color="237,199,199" layer="4.00" x="1206.26" y="825.65"/>
    <poi id="6364183093" type="building" color="237,199,199" layer="4.00" x="1149.49" y="890.29"/>
    <poi id="6486955620" type="building" color="237,199,199" layer="4.00" x="1155.89" y="912.53"/>
</additional>
