<?xml version="1.0" encoding="UTF-8"?>

<!-- generated on 11/17/19 14:41:45 by SUMO netconvert Version 0.32.0
<?xml version="1.0" encoding="UTF-8"?>

<configuration xmlns:xsi="http://www.w3.org/2001/XMLSchema-instance" xsi:noNamespaceSchemaLocation="http://sumo.dlr.de/xsd/netconvertConfiguration.xsd">

    <input>
        <osm-files value="map.osm"/>
    </input>

    <output>
        <output-file value="map.net.xml"/>
    </output>

    <projection>
        <proj.utm value="true"/>
    </projection>

</configuration>
-->

<net version="0.27" xmlns:xsi="http://www.w3.org/2001/XMLSchema-instance" xsi:noNamespaceSchemaLocation="http://sumo.dlr.de/xsd/net_file.xsd">

    <location netOffset="-240432.56,-3545011.45" convBoundary="0.00,0.00,3431.77,2627.81" origBoundary="120.243077,31.969977,120.310638,32.128194" projParameter="+proj=utm +zone=51 +ellps=WGS84 +datum=WGS84 +units=m +no_defs"/>

    <type id="highway.bridleway" priority="1" numLanes="1" speed="2.78" allow="pedestrian" oneway="1" width="2.00"/>
    <type id="highway.bus_guideway" priority="1" numLanes="1" speed="8.33" allow="bus" oneway="1"/>
    <type id="highway.cycleway" priority="1" numLanes="1" speed="5.56" allow="bicycle" oneway="0" width="1.00"/>
    <type id="highway.footway" priority="1" numLanes="1" speed="2.78" allow="pedestrian" oneway="1" width="2.00"/>
    <type id="highway.ford" priority="1" numLanes="1" speed="2.78" allow="army" oneway="0"/>
    <type id="highway.living_street" priority="3" numLanes="1" speed="2.78" disallow="tram rail_urban rail rail_electric ship" oneway="0"/>
    <type id="highway.motorway" priority="13" numLanes="2" speed="44.44" allow="private emergency authority army vip passenger hov taxi bus coach delivery truck trailer motorcycle evehicle custom1 custom2" oneway="1"/>
    <type id="highway.motorway_link" priority="12" numLanes="1" speed="22.22" allow="private emergency authority army vip passenger hov taxi bus coach delivery truck trailer motorcycle evehicle custom1 custom2" oneway="1"/>
    <type id="highway.path" priority="1" numLanes="1" speed="2.78" allow="bicycle pedestrian" oneway="1" width="2.00"/>
    <type id="highway.pedestrian" priority="1" numLanes="1" speed="2.78" allow="pedestrian" oneway="1" width="2.00"/>
    <type id="highway.primary" priority="9" numLanes="2" speed="27.78" disallow="tram rail_urban rail rail_electric ship" oneway="0"/>
    <type id="highway.primary_link" priority="8" numLanes="1" speed="22.22" disallow="tram rail_urban rail rail_electric ship" oneway="0"/>
    <type id="highway.raceway" priority="14" numLanes="2" speed="83.33" allow="vip" oneway="0"/>
    <type id="highway.residential" priority="4" numLanes="1" speed="13.89" disallow="tram rail_urban rail rail_electric ship" oneway="0"/>
    <type id="highway.secondary" priority="7" numLanes="2" speed="27.78" disallow="tram rail_urban rail rail_electric ship" oneway="0"/>
    <type id="highway.secondary_link" priority="6" numLanes="1" speed="22.22" disallow="tram rail_urban rail rail_electric ship" oneway="0"/>
    <type id="highway.service" priority="2" numLanes="1" speed="5.56" allow="delivery bicycle pedestrian" oneway="0"/>
    <type id="highway.services" priority="1" numLanes="1" speed="8.33" disallow="tram rail_urban rail rail_electric ship" oneway="0"/>
    <type id="highway.stairs" priority="1" numLanes="1" speed="1.39" allow="pedestrian" oneway="1" width="2.00"/>
    <type id="highway.step" priority="1" numLanes="1" speed="1.39" allow="pedestrian" oneway="1" width="2.00"/>
    <type id="highway.steps" priority="1" numLanes="1" speed="1.39" allow="pedestrian" oneway="1" width="2.00"/>
    <type id="highway.tertiary" priority="6" numLanes="1" speed="22.22" disallow="tram rail_urban rail rail_electric ship" oneway="0"/>
    <type id="highway.tertiary_link" priority="5" numLanes="1" speed="22.22" disallow="tram rail_urban rail rail_electric ship" oneway="0"/>
    <type id="highway.track" priority="1" numLanes="1" speed="5.56" disallow="tram rail_urban rail rail_electric ship" oneway="0"/>
    <type id="highway.trunk" priority="11" numLanes="2" speed="27.78" disallow="tram rail_urban rail rail_electric bicycle pedestrian ship" oneway="0"/>
    <type id="highway.trunk_link" priority="10" numLanes="1" speed="22.22" disallow="tram rail_urban rail rail_electric bicycle pedestrian ship" oneway="0"/>
    <type id="highway.unclassified" priority="5" numLanes="1" speed="13.89" disallow="tram rail_urban rail rail_electric ship" oneway="0"/>
    <type id="highway.unsurfaced" priority="1" numLanes="1" speed="8.33" disallow="tram rail_urban rail rail_electric ship" oneway="0"/>
    <type id="railway.light_rail" priority="15" numLanes="1" speed="27.78" allow="rail_urban" oneway="1"/>
    <type id="railway.preserved" priority="15" numLanes="1" speed="27.78" allow="rail" oneway="1"/>
    <type id="railway.rail" priority="15" numLanes="1" speed="83.33" allow="rail rail_electric" oneway="1"/>
    <type id="railway.subway" priority="15" numLanes="1" speed="27.78" allow="rail_urban" oneway="1"/>
    <type id="railway.tram" priority="15" numLanes="1" speed="13.89" allow="tram" oneway="1"/>

    <edge id=":2544963094_0" function="internal">
        <lane id=":2544963094_0_0" index="0" disallow="tram rail_urban rail rail_electric ship" speed="22.22" length="4.82" shape="1868.76,458.28 1868.72,456.80 1869.16,455.98 1870.07,455.85 1871.46,456.38"/>
    </edge>
    <edge id=":2544963128_0" function="internal">
        <lane id=":2544963128_0_0" index="0" disallow="tram rail_urban rail rail_electric ship" speed="27.78" length="5.02" shape="2965.34,733.92 2964.82,732.64 2964.02,731.85 2962.93,731.53 2961.56,731.70"/>
    </edge>
    <edge id=":2544963128_1" function="internal">
        <lane id=":2544963128_1_0" index="0" disallow="tram rail_urban rail rail_electric ship" speed="27.78" length="7.90" shape="2965.34,733.92 2964.47,731.24 2963.40,729.45 2962.15,728.54 2960.70,728.51"/>
    </edge>
    <edge id=":2544963128_2" function="internal">
        <lane id=":2544963128_2_0" index="0" disallow="tram rail_urban rail rail_electric ship" speed="27.78" length="16.12" shape="2965.34,733.92 2961.41,718.30"/>
        <lane id=":2544963128_2_1" index="1" disallow="tram rail_urban rail rail_electric ship" speed="27.78" length="16.12" shape="2968.54,733.12 2964.60,717.49"/>
    </edge>
    <edge id=":2544963128_4" function="internal">
        <lane id=":2544963128_4_0" index="0" disallow="tram rail_urban rail rail_electric ship" speed="27.78" length="5.16" shape="2958.98,722.14 2960.33,721.58 2961.18,720.75 2961.54,719.66 2961.41,718.30"/>
    </edge>
    <edge id=":2544963128_5" function="internal">
        <lane id=":2544963128_5_0" index="0" disallow="tram rail_urban rail rail_electric ship" speed="27.78" length="10.43" shape="2959.84,725.33 2962.51,724.20 2964.19,722.51 2964.89,720.28 2964.60,717.49"/>
    </edge>
    <edge id=":2544963128_6" function="internal">
        <lane id=":2544963128_6_0" index="0" disallow="tram rail_urban rail rail_electric ship" speed="27.78" length="4.82" shape="2959.84,725.33 2961.25,725.80 2961.86,726.49 2961.68,727.39 2960.70,728.51"/>
    </edge>
    <edge id=":2544963135_0" function="internal">
        <lane id=":2544963135_0_0" index="0" disallow="tram rail_urban rail rail_electric ship" speed="27.78" length="5.12" shape="1177.77,826.43 1176.55,827.19 1175.87,828.14 1175.71,829.27 1176.09,830.59"/>
    </edge>
    <edge id=":2544963135_1" function="internal">
        <lane id=":2544963135_1_0" index="0" disallow="tram rail_urban rail rail_electric ship" speed="27.78" length="10.44" shape="1176.41,823.43 1173.97,824.97 1172.59,826.90 1172.30,829.23 1173.08,831.95"/>
    </edge>
    <edge id=":2544963135_2" function="internal">
        <lane id=":2544963135_2_0" index="0" disallow="tram rail_urban rail rail_electric ship" speed="15.28" length="8.65" shape="1176.41,823.43 1168.66,827.26"/>
    </edge>
    <edge id=":2544963135_3" function="internal">
        <lane id=":2544963135_3_0" index="0" disallow="tram rail_urban rail rail_electric ship" speed="27.78" length="2.41" shape="1176.41,823.43 1174.94,823.18 1174.23,822.60"/>
    </edge>
    <edge id=":2544963135_11" function="internal">
        <lane id=":2544963135_11_0" index="0" speed="27.78" length="2.41" shape="1174.23,822.60 1174.27,821.68 1175.06,820.42"/>
    </edge>
    <edge id=":2544963135_4" function="internal">
        <lane id=":2544963135_4_0" index="0" disallow="tram rail_urban rail rail_electric ship" speed="27.78" length="5.03" shape="1169.62,815.81 1170.33,816.99 1171.25,817.65 1172.37,817.79 1173.70,817.41"/>
    </edge>
    <edge id=":2544963135_5" function="internal">
        <lane id=":2544963135_5_0" index="0" disallow="tram rail_urban rail rail_electric ship" speed="27.78" length="16.17" shape="1169.62,815.81 1176.09,830.59"/>
        <lane id=":2544963135_5_1" index="1" disallow="tram rail_urban rail rail_electric ship" speed="27.78" length="16.17" shape="1166.58,817.10 1173.08,831.95"/>
    </edge>
    <edge id=":2544963135_7" function="internal">
        <lane id=":2544963135_7_0" index="0" disallow="tram rail_urban rail rail_electric ship" speed="15.28" length="8.57" shape="1166.58,817.10 1168.17,821.17 1169.04,824.22 1169.12,825.24"/>
    </edge>
    <edge id=":2544963135_12" function="internal">
        <lane id=":2544963135_12_0" index="0" speed="15.28" length="2.16" shape="1169.12,825.24 1169.21,826.25 1168.66,827.26"/>
    </edge>
    <edge id=":2544963135_8" function="internal">
        <lane id=":2544963135_8_0" index="0" disallow="tram rail_urban rail rail_electric ship" speed="15.28" length="8.91" shape="1167.07,824.37 1175.06,820.42"/>
    </edge>
    <edge id=":2544963135_9" function="internal">
        <lane id=":2544963135_9_0" index="0" disallow="tram rail_urban rail rail_electric ship" speed="15.28" length="10.21" shape="1167.07,824.37 1168.22,824.41 1169.61,825.69 1171.22,828.21 1173.08,831.95"/>
    </edge>
    <edge id=":2544963135_10" function="internal">
        <lane id=":2544963135_10_0" index="0" disallow="tram rail_urban rail rail_electric ship" speed="2.78" length="4.82" shape="1167.07,824.37 1168.55,824.49 1169.31,825.01 1169.35,825.94 1168.66,827.26"/>
    </edge>
    <edge id=":2544963136_0" function="internal">
        <lane id=":2544963136_0_0" index="0" disallow="tram rail_urban rail rail_electric ship" speed="27.78" length="0.27" shape="1154.03,809.59 1153.90,809.30"/>
        <lane id=":2544963136_0_1" index="1" disallow="tram rail_urban rail rail_electric ship" speed="27.78" length="0.27" shape="1157.02,808.19 1156.92,807.98"/>
    </edge>
    <edge id=":2544963258_0" function="internal">
        <lane id=":2544963258_0_0" index="0" disallow="tram rail_urban rail rail_electric ship" speed="27.78" length="10.10" shape="3081.45,1130.95 3079.35,1132.42 3078.07,1134.34 3077.62,1136.70 3077.99,1139.51"/>
    </edge>
    <edge id=":2544963258_1" function="internal">
        <lane id=":2544963258_1_0" index="0" disallow="tram rail_urban rail rail_electric ship" speed="27.78" length="14.66" shape="3079.98,1128.00 3076.87,1130.15 3074.97,1132.92 3074.28,1136.32 3074.80,1140.34"/>
    </edge>
    <edge id=":2544963258_2" function="internal">
        <lane id=":2544963258_2_0" index="0" disallow="tram rail_urban rail rail_electric ship" speed="27.78" length="10.04" shape="3079.98,1128.00 3077.69,1129.66 3076.68,1131.44 3075.85,1133.46 3074.07,1135.84"/>
    </edge>
    <edge id=":2544963258_3" function="internal">
        <lane id=":2544963258_3_0" index="0" disallow="tram rail_urban rail rail_electric ship" speed="27.78" length="4.82" shape="3079.98,1128.00 3078.51,1127.81 3077.77,1127.25 3077.78,1126.33 3078.52,1125.04"/>
    </edge>
    <edge id=":2544963258_4" function="internal">
        <lane id=":2544963258_4_0" index="0" disallow="tram rail_urban rail rail_electric ship" speed="27.78" length="5.28" shape="3073.08,1120.25 3073.65,1121.63 3074.50,1122.40 3075.63,1122.55 3077.05,1122.08"/>
    </edge>
    <edge id=":2544963258_5" function="internal">
        <lane id=":2544963258_5_0" index="0" disallow="tram rail_urban rail rail_electric ship" speed="27.78" length="19.89" shape="3073.08,1120.25 3077.99,1139.51"/>
        <lane id=":2544963258_5_1" index="1" disallow="tram rail_urban rail rail_electric ship" speed="27.78" length="19.89" shape="3069.88,1121.04 3074.80,1140.34"/>
    </edge>
    <edge id=":2544963258_7" function="internal">
        <lane id=":2544963258_7_0" index="0" disallow="tram rail_urban rail rail_electric ship" speed="27.78" length="12.73" shape="3069.88,1121.04 3071.06,1126.13 3071.76,1129.90 3071.98,1132.37 3071.71,1133.53"/>
    </edge>
    <edge id=":2544963258_8" function="internal">
        <lane id=":2544963258_8_0" index="0" disallow="tram rail_urban rail rail_electric ship" speed="27.78" length="11.75" shape="3066.96,1128.95 3069.59,1126.45 3071.58,1124.92 3073.78,1123.70 3077.05,1122.08"/>
        <lane id=":2544963258_8_1" index="1" disallow="tram rail_urban rail rail_electric ship" speed="27.78" length="11.75" shape="3069.32,1131.26 3071.72,1128.99 3073.53,1127.61 3075.54,1126.50 3078.52,1125.04"/>
    </edge>
    <edge id=":2544963258_10" function="internal">
        <lane id=":2544963258_10_0" index="0" disallow="tram rail_urban rail rail_electric ship" speed="27.78" length="11.80" shape="3069.32,1131.26 3070.59,1130.91 3071.93,1132.30 3073.33,1135.44 3074.80,1140.34"/>
    </edge>
    <edge id=":2544963258_11" function="internal">
        <lane id=":2544963258_11_0" index="0" disallow="tram rail_urban rail rail_electric ship" speed="27.78" length="4.82" shape="3069.32,1131.26 3070.77,1130.93 3071.65,1131.20 3071.96,1132.07 3071.71,1133.53"/>
    </edge>
    <edge id=":2544963260_0" function="internal">
        <lane id=":2544963260_0_0" index="0" disallow="tram rail_urban rail rail_electric ship" speed="27.78" length="5.22" shape="3067.84,1144.50 3067.27,1143.15 3066.42,1142.38 3065.29,1142.20 3063.88,1142.62"/>
    </edge>
    <edge id=":2544963260_1" function="internal">
        <lane id=":2544963260_1_0" index="0" disallow="tram rail_urban rail rail_electric ship" speed="27.78" length="19.79" shape="3067.84,1144.50 3062.97,1125.31"/>
        <lane id=":2544963260_1_1" index="1" disallow="tram rail_urban rail rail_electric ship" speed="27.78" length="19.79" shape="3071.03,1143.68 3066.18,1124.51"/>
    </edge>
    <edge id=":2544963260_3" function="internal">
        <lane id=":2544963260_3_0" index="0" disallow="tram rail_urban rail rail_electric ship" speed="27.78" length="12.53" shape="3071.03,1143.68 3069.83,1138.69 3069.12,1134.99 3068.90,1132.56 3069.17,1131.40"/>
    </edge>
    <edge id=":2544963260_4" function="internal">
        <lane id=":2544963260_4_0" index="0" disallow="tram rail_urban rail rail_electric ship" speed="27.78" length="11.55" shape="3073.93,1135.98 3071.33,1138.46 3069.36,1139.95 3067.16,1141.12 3063.88,1142.62"/>
        <lane id=":2544963260_4_1" index="1" disallow="tram rail_urban rail rail_electric ship" speed="27.78" length="11.55" shape="3071.57,1133.67 3069.22,1135.90 3067.44,1137.23 3065.46,1138.28 3062.51,1139.62"/>
    </edge>
    <edge id=":2544963260_6" function="internal">
        <lane id=":2544963260_6_0" index="0" disallow="tram rail_urban rail rail_electric ship" speed="27.78" length="11.85" shape="3071.57,1133.67 3070.30,1134.03 3068.98,1132.62 3067.60,1129.44 3066.18,1124.51"/>
    </edge>
    <edge id=":2544963260_7" function="internal">
        <lane id=":2544963260_7_0" index="0" disallow="tram rail_urban rail rail_electric ship" speed="27.78" length="4.82" shape="3071.57,1133.67 3070.12,1134.00 3069.24,1133.74 3068.92,1132.87 3069.17,1131.40"/>
    </edge>
    <edge id=":2544963260_8" function="internal">
        <lane id=":2544963260_8_0" index="0" disallow="tram rail_urban rail rail_electric ship" speed="27.78" length="9.78" shape="3059.76,1133.62 3061.74,1132.28 3062.94,1130.45 3063.35,1128.13 3062.97,1125.31"/>
    </edge>
    <edge id=":2544963260_9" function="internal">
        <lane id=":2544963260_9_0" index="0" disallow="tram rail_urban rail rail_electric ship" speed="27.78" length="14.41" shape="3061.14,1136.62 3064.16,1134.62 3066.01,1131.93 3066.68,1128.56 3066.18,1124.51"/>
    </edge>
    <edge id=":2544963260_10" function="internal">
        <lane id=":2544963260_10_0" index="0" disallow="tram rail_urban rail rail_electric ship" speed="27.78" length="9.66" shape="3061.14,1136.62 3063.36,1135.08 3064.33,1133.37 3065.12,1131.39 3066.81,1129.09"/>
    </edge>
    <edge id=":2544963260_11" function="internal">
        <lane id=":2544963260_11_0" index="0" disallow="tram rail_urban rail rail_electric ship" speed="27.78" length="4.82" shape="3061.14,1136.62 3062.60,1136.85 3063.32,1137.43 3063.29,1138.35 3062.51,1139.62"/>
    </edge>
    <edge id=":2544963273_0" function="internal">
        <lane id=":2544963273_0_0" index="0" disallow="tram rail_urban rail rail_electric ship" speed="27.78" length="5.02" shape="1390.62,1278.92 1389.45,1279.66 1388.81,1280.59 1388.69,1281.72 1389.09,1283.04"/>
    </edge>
    <edge id=":2544963273_1" function="internal">
        <lane id=":2544963273_1_0" index="0" disallow="tram rail_urban rail rail_electric ship" speed="27.78" length="10.39" shape="1389.26,1275.92 1386.85,1277.45 1385.52,1279.38 1385.27,1281.71 1386.11,1284.44"/>
    </edge>
    <edge id=":2544963273_2" function="internal">
        <lane id=":2544963273_2_0" index="0" disallow="tram rail_urban rail rail_electric ship" speed="27.78" length="2.85" shape="1389.26,1275.92 1387.79,1275.67 1387.08,1275.09 1387.09,1274.66"/>
    </edge>
    <edge id=":2544963273_7" function="internal">
        <lane id=":2544963273_7_0" index="0" speed="27.78" length="1.97" shape="1387.09,1274.66 1387.11,1274.17 1387.90,1272.91"/>
    </edge>
    <edge id=":2544963273_3" function="internal">
        <lane id=":2544963273_3_0" index="0" disallow="tram rail_urban rail rail_electric ship" speed="27.78" length="5.25" shape="1382.09,1268.58 1382.88,1269.68 1383.89,1270.27 1385.11,1270.34 1386.55,1269.90"/>
    </edge>
    <edge id=":2544963273_4" function="internal">
        <lane id=":2544963273_4_0" index="0" disallow="tram rail_urban rail rail_electric ship" speed="27.78" length="7.98" shape="1382.09,1268.58 1383.52,1270.98 1384.97,1272.50 1386.43,1273.14 1387.90,1272.91"/>
    </edge>
    <edge id=":2544963273_5" function="internal">
        <lane id=":2544963273_5_0" index="0" disallow="tram rail_urban rail rail_electric ship" speed="27.78" length="16.02" shape="1382.09,1268.58 1389.09,1283.04"/>
        <lane id=":2544963273_5_1" index="1" disallow="tram rail_urban rail rail_electric ship" speed="27.78" length="16.02" shape="1379.14,1270.06 1386.11,1284.44"/>
    </edge>
    <edge id=":2544963281_0" function="internal">
        <lane id=":2544963281_0_0" index="0" disallow="tram rail_urban rail rail_electric ship" speed="27.78" length="9.50" shape="1402.19,1311.02 1406.22,1319.62"/>
        <lane id=":2544963281_0_1" index="1" disallow="tram rail_urban rail rail_electric ship" speed="27.78" length="9.50" shape="1399.20,1312.42 1403.23,1321.02"/>
    </edge>
    <edge id=":2544963281_2" function="internal">
        <lane id=":2544963281_2_0" index="0" disallow="tram rail_urban rail rail_electric ship" speed="25.00" length="7.91" shape="1399.20,1312.42 1400.21,1315.05 1400.51,1317.12 1400.10,1318.62 1398.98,1319.55"/>
    </edge>
    <edge id=":2544963281_3" function="internal">
        <lane id=":2544963281_3_0" index="0" disallow="tram rail_urban rail rail_electric ship" speed="25.00" length="7.88" shape="1397.66,1316.52 1399.08,1316.33 1400.48,1317.02 1401.87,1318.58 1403.23,1321.02"/>
    </edge>
    <edge id=":2544963281_4" function="internal">
        <lane id=":2544963281_4_0" index="0" disallow="tram rail_urban rail rail_electric ship" speed="22.22" length="4.82" shape="1397.66,1316.52 1399.12,1316.78 1399.83,1317.37 1399.78,1318.29 1398.98,1319.55"/>
    </edge>
    <edge id=":2544963283_0" function="internal">
        <lane id=":2544963283_0_0" index="0" disallow="tram rail_urban rail rail_electric ship" speed="25.00" length="5.03" shape="1394.08,1325.23 1393.32,1324.07 1392.38,1323.44 1391.25,1323.35 1389.94,1323.79"/>
    </edge>
    <edge id=":2544963283_1" function="internal">
        <lane id=":2544963283_1_0" index="0" disallow="tram rail_urban rail rail_electric ship" speed="27.78" length="9.51" shape="1394.08,1325.23 1390.04,1316.61"/>
        <lane id=":2544963283_1_1" index="1" disallow="tram rail_urban rail rail_electric ship" speed="27.78" length="9.51" shape="1397.07,1323.83 1393.03,1315.21"/>
    </edge>
    <edge id=":2544963283_3" function="internal">
        <lane id=":2544963283_3_0" index="0" disallow="tram rail_urban rail rail_electric ship" speed="25.00" length="7.93" shape="1397.07,1323.83 1396.05,1321.19 1395.75,1319.12 1396.16,1317.62 1397.28,1316.69"/>
    </edge>
    <edge id=":2544963283_4" function="internal">
        <lane id=":2544963283_4_0" index="0" disallow="tram rail_urban rail rail_electric ship" speed="22.22" length="9.58" shape="1398.60,1319.71 1389.94,1323.79"/>
    </edge>
    <edge id=":2544963283_5" function="internal">
        <lane id=":2544963283_5_0" index="0" disallow="tram rail_urban rail rail_electric ship" speed="25.00" length="7.88" shape="1398.60,1319.71 1397.18,1319.90 1395.77,1319.22 1394.39,1317.65 1393.03,1315.21"/>
    </edge>
    <edge id=":2544963283_6" function="internal">
        <lane id=":2544963283_6_0" index="0" disallow="tram rail_urban rail rail_electric ship" speed="22.22" length="4.82" shape="1398.60,1319.71 1397.14,1319.45 1396.43,1318.86 1396.48,1317.94 1397.28,1316.69"/>
    </edge>
    <edge id=":2544963283_7" function="internal">
        <lane id=":2544963283_7_0" index="0" disallow="tram rail_urban rail rail_electric ship" speed="25.00" length="5.12" shape="1388.45,1320.84 1389.64,1320.03 1390.30,1319.06 1390.43,1317.92 1390.04,1316.61"/>
    </edge>
    <edge id=":2544963283_8" function="internal">
        <lane id=":2544963283_8_0" index="0" disallow="tram rail_urban rail rail_electric ship" speed="22.22" length="9.75" shape="1388.45,1320.84 1397.28,1316.69"/>
    </edge>
    <edge id=":2544963283_9" function="internal">
        <lane id=":2544963283_9_0" index="0" disallow="tram rail_urban rail rail_electric ship" speed="22.22" length="4.82" shape="1388.45,1320.84 1389.93,1321.02 1390.67,1321.58 1390.67,1322.50 1389.94,1323.79"/>
    </edge>
    <edge id=":2544963308_0" function="internal">
        <lane id=":2544963308_0_0" index="0" disallow="tram rail_urban rail rail_electric ship" speed="27.78" length="5.21" shape="1541.70,1601.02 1540.35,1601.59 1539.59,1602.45 1539.41,1603.57 1539.82,1604.98"/>
    </edge>
    <edge id=":2544963308_1" function="internal">
        <lane id=":2544963308_1_0" index="0" disallow="tram rail_urban rail rail_electric ship" speed="27.78" length="11.19" shape="1540.85,1597.83 1537.96,1599.06 1536.33,1600.89 1535.94,1603.31 1536.81,1606.33"/>
    </edge>
    <edge id=":2544963308_2" function="internal">
        <lane id=":2544963308_2_0" index="0" disallow="tram rail_urban rail rail_electric ship" speed="25.00" length="10.86" shape="1540.85,1597.83 1530.41,1600.83"/>
    </edge>
    <edge id=":2544963308_3" function="internal">
        <lane id=":2544963308_3_0" index="0" disallow="tram rail_urban rail rail_electric ship" speed="27.78" length="2.41" shape="1540.85,1597.83 1539.45,1597.35 1538.84,1596.66"/>
    </edge>
    <edge id=":2544963308_11" function="internal">
        <lane id=":2544963308_11_0" index="0" speed="27.78" length="2.41" shape="1538.84,1596.66 1539.02,1595.76 1540.01,1594.64"/>
    </edge>
    <edge id=":2544963308_4" function="internal">
        <lane id=":2544963308_4_0" index="0" disallow="tram rail_urban rail rail_electric ship" speed="27.78" length="6.78" shape="1533.03,1590.19 1533.87,1591.23 1535.17,1591.79 1536.93,1591.86 1539.16,1591.45"/>
    </edge>
    <edge id=":2544963308_5" function="internal">
        <lane id=":2544963308_5_0" index="0" disallow="tram rail_urban rail rail_electric ship" speed="27.78" length="16.24" shape="1533.03,1590.19 1539.82,1604.98"/>
        <lane id=":2544963308_5_1" index="1" disallow="tram rail_urban rail rail_electric ship" speed="27.78" length="16.24" shape="1530.05,1591.59 1536.81,1606.33"/>
    </edge>
    <edge id=":2544963308_7" function="internal">
        <lane id=":2544963308_7_0" index="0" disallow="tram rail_urban rail rail_electric ship" speed="25.00" length="7.50" shape="1530.05,1591.59 1531.50,1595.23 1532.05,1597.98 1531.90,1598.74"/>
    </edge>
    <edge id=":2544963308_12" function="internal">
        <lane id=":2544963308_12_0" index="0" speed="25.00" length="2.74" shape="1531.90,1598.74 1531.69,1599.85 1530.41,1600.83"/>
    </edge>
    <edge id=":2544963308_8" function="internal">
        <lane id=":2544963308_8_0" index="0" disallow="tram rail_urban rail rail_electric ship" speed="25.00" length="11.01" shape="1529.43,1597.69 1540.01,1594.64"/>
    </edge>
    <edge id=":2544963308_9" function="internal">
        <lane id=":2544963308_9_0" index="0" disallow="tram rail_urban rail rail_electric ship" speed="25.00" length="11.99" shape="1529.43,1597.69 1531.03,1597.87 1532.80,1599.37 1534.72,1602.19 1536.81,1606.33"/>
    </edge>
    <edge id=":2544963308_10" function="internal">
        <lane id=":2544963308_10_0" index="0" disallow="tram rail_urban rail rail_electric ship" speed="22.22" length="4.82" shape="1529.43,1597.69 1530.85,1598.10 1531.49,1598.77 1531.35,1599.68 1530.41,1600.83"/>
    </edge>
    <edge id=":2544963309_0" function="internal">
        <lane id=":2544963309_0_0" index="0" disallow="tram rail_urban rail rail_electric ship" speed="27.78" length="9.51" shape="1525.62,1606.20 1521.65,1597.58"/>
        <lane id=":2544963309_0_1" index="1" disallow="tram rail_urban rail rail_electric ship" speed="27.78" length="9.51" shape="1528.62,1604.84 1524.64,1596.18"/>
    </edge>
    <edge id=":2544963309_2" function="internal">
        <lane id=":2544963309_2_0" index="0" disallow="tram rail_urban rail rail_electric ship" speed="25.00" length="8.11" shape="1528.62,1604.84 1527.64,1602.13 1527.42,1600.04 1527.97,1598.58 1529.28,1597.73"/>
    </edge>
    <edge id=":2544963309_3" function="internal">
        <lane id=":2544963309_3_0" index="0" disallow="tram rail_urban rail rail_electric ship" speed="25.00" length="7.96" shape="1530.27,1600.88 1528.80,1600.94 1527.37,1600.17 1525.98,1598.59 1524.64,1596.18"/>
    </edge>
    <edge id=":2544963309_4" function="internal">
        <lane id=":2544963309_4_0" index="0" disallow="tram rail_urban rail rail_electric ship" speed="22.22" length="4.82" shape="1530.27,1600.88 1528.84,1600.46 1528.20,1599.80 1528.35,1598.89 1529.28,1597.73"/>
    </edge>
    <edge id=":2544963352_0" function="internal">
        <lane id=":2544963352_0_0" index="0" disallow="tram rail_urban rail rail_electric ship" speed="22.22" length="4.82" shape="0.70,1973.56 -0.77,1973.34 -1.49,1972.77 -1.47,1971.85 -0.70,1970.57"/>
    </edge>
    <edge id=":2546776902_0" function="internal">
        <lane id=":2546776902_0_0" index="0" disallow="tram rail_urban rail rail_electric ship" speed="27.78" length="4.82" shape="1752.08,429.64 1753.52,429.25 1754.41,429.48 1754.76,430.33 1754.57,431.81"/>
    </edge>
    <edge id=":2953984174_0" function="internal">
        <lane id=":2953984174_0_0" index="0" disallow="tram rail_urban rail rail_electric ship" speed="22.22" length="4.82" shape="2235.95,410.12 2236.90,408.98 2237.77,408.66 2238.54,409.17 2239.23,410.49"/>
    </edge>
    <edge id=":3388704940_0" function="internal">
        <lane id=":3388704940_0_0" index="0" disallow="tram rail_urban rail rail_electric ship" speed="27.78" length="9.57" shape="2466.07,1362.65 2456.74,1364.83"/>
        <lane id=":3388704940_0_1" index="1" disallow="tram rail_urban rail rail_electric ship" speed="27.78" length="9.57" shape="2465.30,1359.44 2456.00,1361.62"/>
    </edge>
    <edge id=":3388704940_2" function="internal">
        <lane id=":3388704940_2_0" index="0" disallow="tram rail_urban rail rail_electric ship" speed="25.00" length="4.44" shape="2465.30,1359.44 2462.50,1359.48 2461.07,1358.68"/>
    </edge>
    <edge id=":3388704940_3" function="internal">
        <lane id=":3388704940_3_0" index="0" disallow="tram rail_urban rail rail_electric ship" speed="27.78" length="2.41" shape="2465.30,1359.44 2463.91,1358.92 2463.32,1358.22"/>
    </edge>
    <edge id=":3388704940_11" function="internal">
        <lane id=":3388704940_11_0" index="0" speed="25.00" length="8.65" shape="2461.07,1358.68 2460.14,1358.16 2458.24,1355.48 2456.79,1351.44"/>
    </edge>
    <edge id=":3388704940_12" function="internal">
        <lane id=":3388704940_12_0" index="0" speed="27.78" length="2.41" shape="2463.32,1358.22 2463.53,1357.32 2464.54,1356.23"/>
    </edge>
    <edge id=":3388704940_4" function="internal">
        <lane id=":3388704940_4_0" index="0" disallow="tram rail_urban rail rail_electric ship" speed="25.00" length="5.10" shape="2459.99,1350.61 2460.53,1351.93 2461.34,1352.77 2462.42,1353.13 2463.78,1353.02"/>
    </edge>
    <edge id=":3388704940_5" function="internal">
        <lane id=":3388704940_5_0" index="0" disallow="tram rail_urban rail rail_electric ship" speed="25.00" length="13.27" shape="2459.99,1350.61 2460.66,1354.87 2460.22,1358.12 2458.67,1360.37 2456.00,1361.62"/>
    </edge>
    <edge id=":3388704940_6" function="internal">
        <lane id=":3388704940_6_0" index="0" disallow="tram rail_urban rail rail_electric ship" speed="22.22" length="4.82" shape="2459.99,1350.61 2459.50,1352.01 2458.80,1352.62 2457.90,1352.43 2456.79,1351.44"/>
    </edge>
    <edge id=":3388704940_7" function="internal">