<?xml version="1.0" encoding="iso-8859-1"?>

<configuration xmlns:xsi="http://www.w3.org/2001/XMLSchema-instance" xsi:noNamespaceSchemaLocation="http://sumo.sf.net/xsd/sumoConfiguration.xsd">

    <input>
        <net-file value="safe.net.xml"/>
        <route-files value="safe.rou.xml"/>
        <additional-files value="safe.poly.xml"/>
    </input>

<time>
        <begin value="0"/>
        <end value="200"/>
        <step-length value="0.1"/>
    </time>

    <report>
        <no-step-log value="true"/>
    </report>

    <gui_only>
        <start value="false"/>
        <gui-settings-file value="gridview.xml"/>
    </gui_only>

</configuration>
