<?xml version="1.0" encoding="UTF-8"?>

<!-- generated on 03/12/20 15:55:06 by Eclipse SUMO netedit Version 1.3.1
<configuration xmlns:xsi="http://www.w3.org/2001/XMLSchema-instance" xsi:noNamespaceSchemaLocation="http://sumo.dlr.de/xsd/netconvertConfiguration.xsd">

    <input>
        <sumo-net-file value="C:\veins\src\veins-4.7.1\examples\veins\straight.net.xml"/>
    </input>

    <output>
        <output-file value="C:\veins\src\veins-4.7.1\examples\veins\straight.net.xml"/>
    </output>

    <processing>
        <geometry.max-grade.fix value="false"/>
        <offset.disable-normalization value="true"/>
        <opposites.guess.fix-lengths value="true"/>
        <lefthand value="false"/>
    </processing>

    <junctions>
        <no-internal-links value="true"/>
        <no-turnarounds value="true"/>
        <junctions.corner-detail value="5"/>
        <junctions.limit-turn-speed value="5.5"/>
        <rectangular-lane-cut value="false"/>
    </junctions>

    <pedestrian>
        <walkingareas value="false"/>
    </pedestrian>

</configuration>
-->

<net version="1.3" junctionCornerDetail="5" limitTurnSpeed="5.50" xmlns:xsi="http://www.w3.org/2001/XMLSchema-instance" xsi:noNamespaceSchemaLocation="http://sumo.dlr.de/xsd/net_file.xsd">

    <location netOffset="0.00,0.00" convBoundary="100.00,50.00,1100.00,50.00" origBoundary="-10000000000.00,-10000000000.00,10000000000.00,10000000000.00" projParameter="!"/>

    <edge id="gneE0" from="gneJ1" to="gneJ2" priority="-1">
        <lane id="gneE0_0" index="0" speed="13.89" length="1000.00" shape="100.00,48.40 1100.00,48.40"/>
    </edge>
    <edge id="gneE1" from="gneJ2" to="gneJ1" priority="-1">
        <lane id="gneE1_0" index="0" speed="13.89" length="1000.00" shape="1100.00,51.60 100.00,51.60"/>
    </edge>

    <junction id="gneJ1" type="dead_end" x="100.00" y="50.00" incLanes="gneE1_0" intLanes="" shape="100.00,50.00 100.00,53.20 100.00,50.00" rightOfWay="edgePriority"/>
    <junction id="gneJ2" type="dead_end" x="1100.00" y="50.00" incLanes="gneE0_0" intLanes="" shape="1100.00,50.00 1100.00,46.80 1100.00,50.00"/>

</net>
