<?xml version="1.0" encoding="UTF-8"?>

<!-- generated on 09/18/19 20:08:36 by Eclipse SUMO duarouter Version 1.0.0
<configuration xmlns:xsi="http://www.w3.org/2001/XMLSchema-instance" xsi:noNamespaceSchemaLocation="http://sumo.dlr.de/xsd/duarouterConfiguration.xsd">

    <input>
        <net-file value="grid.net.xml"/>
        <route-files value="trips.trips.xml"/>
    </input>

    <output>
        <output-file value="grid.rou.xml"/>
        <alternatives-output value="grid.rou.alt.xml"/>
    </output>

</configuration>
-->

<routes xmlns:xsi="http://www.w3.org/2001/XMLSchema-instance" xsi:noNamespaceSchemaLocation="http://sumo.dlr.de/xsd/routes_file.xsd">
    <vehicle id="0" depart="0.00">
        <route edges="gneE0"/>
    </vehicle>

    <vehicle id="2" depart="0.00">
        <route edges="gneE1"/>
    </vehicle>

    <vehicle id="3" depart="10.00">
        <route edges="gneE0"/>
    </vehicle>
</routes>
