<?xml version="1.0" encoding="iso-8859-1"?>

<!-- generated on Wed Nov 30 12:18:34 2011 by SUMO polyconvert Version 0.13.1
<?xml version="1.0" encoding="iso-8859-1"?>

<configuration xmlns:xsi="http://www.w3.org/2001/XMLSchema-instance" xsi:noNamespaceSchemaLocation="http://sumo.sf.net/xsd/polyconvertConfiguration.xsd">

</configuration>
-->

<shapes>
    
    <poly id="1" type="building" color="1.00,0.00,0.00" fill="1" layer="1" shape="600,20 600,600 20,600 20,20 600,20 "/>
    <poly id="2" type="building" color="1.00,0.00,0.00" fill="1" layer="1" shape="600,-20 600,-600 20,-600 20,-20 600,-20 "/>
    <poly id="3" type="building" color="1.00,0.00,0.00" fill="1" layer="1" shape="-600,-20 -600,-600 -20,-600 -20,-20 -600,-20 "/>
    <poly id="4" type="building" color="1.00,0.00,0.00" fill="1" layer="1" shape="-600,20 -600,600 -20,600 -20,20 -600,20 "/>
    <poly id="5" type="building" color="1.00,0.00,0.00" fill="1" layer="1" shape="-1230,20 -1230,600 -650,600 -650,20 -1230,20 "/>
    <poly id="6" type="building" color="1.00,0.00,0.00" fill="1" layer="1" shape="-1230,-20 -1230,-600 -650,-600 -650,-20 -1230,-20 "/>
    <poly id="7" type="building" color="1.00,0.00,0.00" fill="1" layer="1" shape="-1230,-650 -1230,-1230 -650,-1230 -650,-650 -1230,-650 "/>
    <poly id="8" type="building" color="1.00,0.00,0.00" fill="1" layer="1" shape="-1230,650 -1230,1230 -650,1230 -650,650 -1230,650 "/>
    
    <poly id="9" type="building" color="1.00,0.00,0.00" fill="1" layer="1" shape="1230,20 1230,600 650,600 650,20 1230,20 "/>
    <poly id="10" type="building" color="1.00,0.00,0.00" fill="1" layer="1" shape="1230,-20 1230,-600 650,-600 650,-20 1230,-20 "/>
    <poly id="11" type="building" color="1.00,0.00,0.00" fill="1" layer="1" shape="1230,-650 1230,-1230 650,-1230 650,-650 1230,-650 "/>
    <poly id="12" type="building" color="1.00,0.00,0.00" fill="1" layer="1" shape="1230,650 1230,1230 650,1230 650,650 1230,650 "/>
    
    <poly id="13" type="building" color="1.00,0.00,0.00" fill="1" layer="1" shape="600,-650 600,-1230 20,-1230 20,-650 600,-650 "/>
    <poly id="14" type="building" color="1.00,0.00,0.00" fill="1" layer="1" shape="-600,-650 -600,-1230 -20,-1230 -20,-650 -600,-650 "/>
    
    <poly id="15" type="building" color="1.00,0.00,0.00" fill="1" layer="1" shape="600,650 600,1230 20,1230 20,650 600,650 "/>
    <poly id="16" type="building" color="1.00,0.00,0.00" fill="1" layer="1" shape="-600,650 -600,1230 -20,1230 -20,650 -600,650 "/>

    
</shapes>
