<?xml version="1.0" encoding="UTF-8"?>

<!-- generated on 04/27/20 09:13:14 by Eclipse SUMO duarouter Version 1.3.1
<configuration xmlns:xsi="http://www.w3.org/2001/XMLSchema-instance" xsi:noNamespaceSchemaLocation="http://sumo.dlr.de/xsd/duarouterConfiguration.xsd">

    <input>
        <net-file value="safe.net.xml"/>
        <route-files value="trips.trips.xml"/>
    </input>

    <output>
        <output-file value="safa.rou.xml"/>
        <alternatives-output value="safa.rou.alt.xml"/>
    </output>

</configuration>
-->

<routes xmlns:xsi="http://www.w3.org/2001/XMLSchema-instance" xsi:noNamespaceSchemaLocation="http://sumo.dlr.de/xsd/routes_file.xsd">
    <vehicle id="1" depart="1.00">
        <route edges="gneE5 gneE0"/>
    </vehicle>
    <vehicle id="2" depart="2.00">
        <route edges="gneE3 gneE6"/>
    </vehicle>
    <vehicle id="3" depart="3.00">
        <route edges="gneE8 gneE4"/>
    </vehicle>
    <vehicle id="5" depart="5.00">
        <route edges="gneE8 gneE4"/>
    </vehicle>
    <vehicle id="7" depart="7.00">
        <route edges="gneE3 gneE4"/>
    </vehicle>
    <vehicle id="8" depart="8.00">
        <route edges="gneE8 gneE2"/>
    </vehicle>
    <vehicle id="9" depart="9.00">
        <route edges="gneE5 gneE0"/>
    </vehicle>
    <vehicle id="11" depart="11.00">
        <route edges="gneE5 gneE6"/>
    </vehicle>
    <vehicle id="12" depart="12.00">
        <route edges="gneE8 gneE2"/>
    </vehicle>
    <vehicle id="13" depart="13.00">
        <route edges="gneE5 gneE6"/>
    </vehicle>
    <vehicle id="14" depart="14.00">
        <route edges="gneE5 gneE6"/>
    </vehicle>
    <vehicle id="15" depart="15.00">
        <route edges="gneE3 gneE6"/>
    </vehicle>
    <vehicle id="16" depart="16.00">
        <route edges="gneE8 gneE4"/>
    </vehicle>
    <vehicle id="17" depart="17.00">
        <route edges="gneE3 gneE0"/>
    </vehicle>
    <vehicle id="18" depart="18.00">
        <route edges="gneE8 gneE2"/>
    </vehicle>
    <vehicle id="19" depart="19.00">
        <route edges="gneE1 gneE6"/>
    </vehicle>
    <vehicle id="20" depart="20.00">
        <route edges="gneE1 gneE6"/>
    </vehicle>
    <vehicle id="22" depart="22.00">
        <route edges="gneE1 gneE4"/>
    </vehicle>
    <vehicle id="24" depart="24.00">
        <route edges="gneE3 gneE0"/>
    </vehicle>
    <vehicle id="26" depart="26.00">
        <route edges="gneE5 gneE6"/>
    </vehicle>
    <vehicle id="27" depart="27.00">
        <route edges="gneE1 gneE4"/>
    </vehicle>
    <vehicle id="28" depart="28.00">
        <route edges="gneE8 gneE0"/>
    </vehicle>
    <vehicle id="29" depart="29.00">
        <route edges="gneE3 gneE0"/>
    </vehicle>
    <vehicle id="30" depart="30.00">
        <route edges="gneE5 gneE0"/>
    </vehicle>
    <vehicle id="31" depart="31.00">
        <route edges="gneE8 gneE4"/>
    </vehicle>
    <vehicle id="32" depart="32.00">
        <route edges="gneE5 gneE2"/>
    </vehicle>
    <vehicle id="33" depart="33.00">
        <route edges="gneE3 gneE6"/>
    </vehicle>
    <vehicle id="34" depart="34.00">
        <route edges="gneE5 gneE2"/>
    </vehicle>
    <vehicle id="35" depart="35.00">
        <route edges="gneE8 gneE4"/>
    </vehicle>
    <vehicle id="36" depart="36.00">
        <route edges="gneE8 gneE2"/>
    </vehicle>
    <vehicle id="37" depart="37.00">
        <route edges="gneE3 gneE4"/>
    </vehicle>
    <vehicle id="38" depart="38.00">
        <route edges="gneE5 gneE2"/>
    </vehicle>
    <vehicle id="40" depart="40.00">
        <route edges="gneE8 gneE2"/>
    </vehicle>
    <vehicle id="41" depart="41.00">
        <route edges="gneE5 gneE2"/>
    </vehicle>
    <vehicle id="43" depart="43.00">
        <route edges="gneE8 gneE4"/>
    </vehicle>
    <vehicle id="45" depart="45.00">
        <route edges="gneE3 gneE4"/>
    </vehicle>
    <vehicle id="47" depart="47.00">
        <route edges="gneE5 gneE6"/>
    </vehicle>
    <vehicle id="49" depart="49.00">
        <route edges="gneE5 gneE0"/>
    </vehicle>
    <vehicle id="50" depart="50.00">
        <route edges="gneE1 gneE6"/>
    </vehicle>
    <vehicle id="51" depart="51.00">
        <route edges="gneE3 gneE4"/>
    </vehicle>
    <vehicle id="52" depart="52.00">
        <route edges="gneE1 gneE6"/>
    </vehicle>
    <vehicle id="53" depart="53.00">
        <route edges="gneE1 gneE4"/>
    </vehicle>
    <vehicle id="54" depart="54.00">
        <route edges="gneE3 gneE0"/>
    </vehicle>
    <vehicle id="55" depart="55.00">
        <route edges="gneE5 gneE6"/>
    </vehicle>
    <vehicle id="57" depart="57.00">
        <route edges="gneE8 gneE2"/>
    </vehicle>
    <vehicle id="58" depart="58.00">
        <route edges="gneE1 gneE4"/>
    </vehicle>
    <vehicle id="59" depart="59.00">
        <route edges="gneE8 gneE0"/>
    </vehicle>
    <vehicle id="60" depart="60.00">
        <route edges="gneE1 gneE6"/>
    </vehicle>
    <vehicle id="61" depart="61.00">
        <route edges="gneE1 gneE6"/>
    </vehicle>
    <vehicle id="62" depart="62.00">
        <route edges="gneE8 gneE4"/>
    </vehicle>
    <vehicle id="63" depart="63.00">
        <route edges="gneE1 gneE6"/>
    </vehicle>
    <vehicle id="66" depart="66.00">
        <route edges="gneE1 gneE6"/>
    </vehicle>
    <vehicle id="69" depart="69.00">
        <route edges="gneE3 gneE4"/>
    </vehicle>
    <vehicle id="71" depart="71.00">
        <route edges="gneE1 gneE2"/>
    </vehicle>
    <vehicle id="72" depart="72.00">
        <route edges="gneE5 gneE6"/>
    </vehicle>
    <vehicle id="73" depart="73.00">
        <route edges="gneE1 gneE6"/>
    </vehicle>
    <vehicle id="74" depart="74.00">
        <route edges="gneE1 gneE4"/>
    </vehicle>
    <vehicle id="75" depart="75.00">
        <route edges="gneE8 gneE2"/>
    </vehicle>
    <vehicle id="76" depart="76.00">
        <route edges="gneE1 gneE4"/>
    </vehicle>
    <vehicle id="77" depart="77.00">
        <route edges="gneE8 gneE0"/>
    </vehicle>
    <vehicle id="79" depart="79.00">
        <route edges="gneE8 gneE0"/>
    </vehicle>
    <vehicle id="80" depart="80.00">
        <route edges="gneE3 gneE4"/>
    </vehicle>
    <vehicle id="85" depart="85.00">
        <route edges="gneE1 gneE6"/>
    </vehicle>
    <vehicle id="86" depart="86.00">
        <route edges="gneE8 gneE4"/>
    </vehicle>
    <vehicle id="87" depart="87.00">
        <route edges="gneE5 gneE6"/>
    </vehicle>
    <vehicle id="88" depart="88.00">
        <route edges="gneE8 gneE2"/>
    </vehicle>
    <vehicle id="89" depart="89.00">
        <route edges="gneE1 gneE4"/>
    </vehicle>
    <vehicle id="91" depart="91.00">
        <route edges="gneE8 gneE0"/>
    </vehicle>
    <vehicle id="92" depart="92.00">
        <route edges="gneE1 gneE6"/>
    </vehicle>
    <vehicle id="94" depart="94.00">
        <route edges="gneE3 gneE0"/>
    </vehicle>
    <vehicle id="96" depart="96.00">
        <route edges="gneE8 gneE0"/>
    </vehicle>
    <vehicle id="97" depart="97.00">
        <route edges="gneE8 gneE0"/>
    </vehicle>
    <vehicle id="98" depart="98.00">
        <route edges="gneE8 gneE0"/>
    </vehicle>
    <vehicle id="99" depart="99.00">
        <route edges="gneE1 gneE6"/>
    </vehicle>
    <vehicle id="100" depart="100.00">
        <route edges="gneE5 gneE6"/>
    </vehicle>
    <vehicle id="101" depart="101.00">
        <route edges="gneE3 gneE4"/>
    </vehicle>
    <vehicle id="102" depart="102.00">
        <route edges="gneE1 gneE2"/>
    </vehicle>
    <vehicle id="103" depart="103.00">
        <route edges="gneE3 gneE4"/>
    </vehicle>
    <vehicle id="104" depart="104.00">
        <route edges="gneE8 gneE4"/>
    </vehicle>
    <vehicle id="105" depart="105.00">
        <route edges="gneE8 gneE4"/>
    </vehicle>
    <vehicle id="106" depart="106.00">
        <route edges="gneE3 gneE6"/>
    </vehicle>
    <vehicle id="108" depart="108.00">
        <route edges="gneE3 gneE6"/>
    </vehicle>
    <vehicle id="110" depart="110.00">
        <route edges="gneE5 gneE6"/>
    </vehicle>
    <vehicle id="112" depart="112.00">
        <route edges="gneE1 gneE6"/>
    </vehicle>
    <vehicle id="113" depart="113.00">
        <route edges="gneE3 gneE6"/>
    </vehicle>
    <vehicle id="115" depart="115.00">
        <route edges="gneE8 gneE2"/>
    </vehicle>
    <vehicle id="116" depart="116.00">
        <route edges="gneE5 gneE6"/>
    </vehicle>
    <vehicle id="118" depart="118.00">
        <route edges="gneE1 gneE2"/>
    </vehicle>
    <vehicle id="119" depart="119.00">
        <route edges="gneE1 gneE4"/>
    </vehicle>
    <vehicle id="120" depart="120.00">
        <route edges="gneE5 gneE6"/>
    </vehicle>
    <vehicle id="121" depart="121.00">
        <route edges="gneE8 gneE4"/>
    </vehicle>
    <vehicle id="122" depart="122.00">
        <route edges="gneE1 gneE6"/>
    </vehicle>
    <vehicle id="123" depart="123.00">
        <route edges="gneE5 gneE6"/>
    </vehicle>
    <vehicle id="124" depart="124.00">
        <route edges="gneE8 gneE0"/>
    </vehicle>
    <vehicle id="125" depart="125.00">
        <route edges="gneE3 gneE6"/>
    </vehicle>
    <vehicle id="126" depart="126.00">
        <route edges="gneE5 gneE6"/>
    </vehicle>
    <vehicle id="127" depart="127.00">
        <route edges="gneE1 gneE2"/>
    </vehicle>
    <vehicle id="128" depart="128.00">
        <route edges="gneE3 gneE4"/>
    </vehicle>
    <vehicle id="129" depart="129.00">
        <route edges="gneE3 gneE0"/>
    </vehicle>
    <vehicle id="131" depart="131.00">
        <route edges="gneE8 gneE4"/>
    </vehicle>
    <vehicle id="132" depart="132.00">
        <route edges="gneE3 gneE0"/>
    </vehicle>
    <vehicle id="133" depart="133.00">
        <route edges="gneE3 gneE6"/>
    </vehicle>
    <vehicle id="134" depart="134.00">
        <route edges="gneE5 gneE6"/>
    </vehicle>
    <vehicle id="135" depart="135.00">
        <route edges="gneE3 gneE6"/>
    </vehicle>
    <vehicle id="136" depart="136.00">
        <route edges="gneE8 gneE2"/>
    </vehicle>
    <vehicle id="137" depart="137.00">
        <route edges="gneE1 gneE4"/>
    </vehicle>
    <vehicle id="138" depart="138.00">
        <route edges="gneE1 gneE2"/>
    </vehicle>
    <vehicle id="139" depart="139.00">
        <route edges="gneE5 gneE2"/>
    </vehicle>
    <vehicle id="141" depart="141.00">
        <route edges="gneE8 gneE4"/>
    </vehicle>
    <vehicle id="142" depart="142.00">
        <route edges="gneE5 gneE2"/>
    </vehicle>
    <vehicle id="143" depart="143.00">
        <route edges="gneE8 gneE0"/>
    </vehicle>
    <vehicle id="144" depart="144.00">
        <route edges="gneE8 gneE4"/>
    </vehicle>
    <vehicle id="145" depart="145.00">
        <route edges="gneE8 gneE2"/>
    </vehicle>
    <vehicle id="146" depart="146.00">
        <route edges="gneE1 gneE6"/>
    </vehicle>
    <vehicle id="148" depart="148.00">
        <route edges="gneE5 gneE0"/>
    </vehicle>
    <vehicle id="150" depart="150.00">
        <route edges="gneE1 gneE4"/>
    </vehicle>
    <vehicle id="151" depart="151.00">
        <route edges="gneE8 gneE2"/>
    </vehicle>
    <vehicle id="152" depart="152.00">
        <route edges="gneE8 gneE0"/>
    </vehicle>
    <vehicle id="154" depart="154.00">
        <route edges="gneE3 gneE6"/>
    </vehicle>
    <vehicle id="155" depart="155.00">
        <route edges="gneE8 gneE4"/>
    </vehicle>
    <vehicle id="156" depart="156.00">
        <route edges="gneE1 gneE6"/>
    </vehicle>
    <vehicle id="157" depart="157.00">
        <route edges="gneE3 gneE4"/>
    </vehicle>
    <vehicle id="159" depart="159.00">
        <route edges="gneE1 gneE6"/>
    </vehicle>
    <vehicle id="160" depart="160.00">
        <route edges="gneE5 gneE0"/>
    </vehicle>
    <vehicle id="163" depart="163.00">
        <route edges="gneE5 gneE6"/>
    </vehicle>
    <vehicle id="168" depart="168.00">
        <route edges="gneE5 gneE6"/>
    </vehicle>
    <vehicle id="170" depart="170.00">
        <route edges="gneE8 gneE4"/>
    </vehicle>
    <vehicle id="171" depart="171.00">
        <route edges="gneE1 gneE2"/>
    </vehicle>
    <vehicle id="172" depart="172.00">
        <route edges="gneE1 gneE2"/>
    </vehicle>
    <vehicle id="173" depart="173.00">
        <route edges="gneE1 gneE4"/>
    </vehicle>
    <vehicle id="175" depart="175.00">
        <route edges="gneE8 gneE2"/>
    </vehicle>
    <vehicle id="176" depart="176.00">
        <route edges="gneE1 gneE2"/>
    </vehicle>
    <vehicle id="177" depart="177.00">
        <route edges="gneE1 gneE4"/>
    </vehicle>
    <vehicle id="178" depart="178.00">
        <route edges="gneE5 gneE6"/>
    </vehicle>
    <vehicle id="179" depart="179.00">
        <route edges="gneE3 gneE0"/>
    </vehicle>
    <vehicle id="180" depart="180.00">
        <route edges="gneE8 gneE0"/>
    </vehicle>
    <vehicle id="181" depart="181.00">
        <route edges="gneE8 gneE0"/>
    </vehicle>
    <vehicle id="182" depart="182.00">
        <route edges="gneE5 gneE2"/>
    </vehicle>
    <vehicle id="183" depart="183.00">
        <route edges="gneE3 gneE6"/>
    </vehicle>
    <vehicle id="184" depart="184.00">
        <route edges="gneE3 gneE4"/>
    </vehicle>
    <vehicle id="186" depart="186.00">
        <route edges="gneE1 gneE4"/>
    </vehicle>
    <vehicle id="188" depart="188.00">
        <route edges="gneE3 gneE0"/>
    </vehicle>
    <vehicle id="191" depart="191.00">
        <route edges="gneE1 gneE2"/>
    </vehicle>
    <vehicle id="193" depart="193.00">
        <route edges="gneE8 gneE0"/>
    </vehicle>
    <vehicle id="194" depart="194.00">
        <route edges="gneE1 gneE2"/>
    </vehicle>
    <vehicle id="196" depart="196.00">
        <route edges="gneE5 gneE6"/>
    </vehicle>
    <vehicle id="197" depart="197.00">
        <route edges="gneE3 gneE0"/>
    </vehicle>
    <vehicle id="198" depart="198.00">
        <route edges="gneE1 gneE2"/>
    </vehicle>
    <vehicle id="199" depart="199.00">
        <route edges="gneE8 gneE2"/>
    </vehicle>
</routes>
